@<TRIPOS>MOLECULE
RES
30252 31501 1 0 1
SMALL
NO_CHARGES
@<TRIPOS>CRYSIN
  442.8436   148.4532   300.7876    90.0000    90.0000    90.0000 1 1
@<TRIPOS>ATOM
       1 C0           1.0004     3.2931     0.1992 C0            1 RES     
       2 C1          -0.3134     3.1202    -0.1367 C1            1 RES     
       3 C1          -0.9623     2.2537     0.6663 C1            1 RES     
       4 C1          -0.1664     1.7304     1.5456 C1            1 RES     
       5 C1           1.2020     2.2474     1.3695 C1            1 RES     
       6 C1           1.8022     0.8969     1.0086 C1            1 RES     
       7 C1           1.0749    -0.2130     1.3282 C1            1 RES     
       8 S2          -0.4218     0.1634     2.3022 S2            1 RES     
       9 C1           1.4384    -1.6182     0.8665 C1            1 RES     
      10 C1           2.7372    -1.9184     0.3599 C1            1 RES     
      11 N3           3.0641    -3.1686    -0.0787 N3            1 RES     
      12 C1           2.1852    -4.1957    -0.0848 C1            1 RES     
      13 C1           0.8926    -3.9746     0.3739 C1            1 RES     
      14 C1           0.5155    -2.6855     0.8594 C1            1 RES     
      15 N3          -0.7807    -2.5910     1.2699 N3            1 RES     
      16 S2          -1.3624    -4.1197     1.0068 S2            1 RES     
      17 N3          -0.0661    -4.9325     0.3849 N3            1 RES     
      18 S2          -2.5346     1.9392     0.1865 S2            1 RES     
      19 C1          -2.4147     2.9867    -1.1385 C1            1 RES     
      20 C1          -1.1249     3.5271    -1.2090 C1            1 RES     
      21 C0           1.1731     4.8353     0.6070 C0            1 RES     
      22 C0           0.3575     6.1867     0.9281 C0            1 RES     
      23 C0          -0.7098     6.6178    -0.1267 C0            1 RES     
      24 C0          -2.1077     6.7342     0.5099 C0            1 RES     
      25 C0          -3.2438     6.9719    -0.5012 C0            1 RES     
      26 C0          -4.5682     7.1836     0.2569 C0            1 RES     
      27 C0          -5.7891     7.2288    -0.6704 C0            1 RES     
      28 C0          -7.0668     7.4766     0.1348 C0            1 RES     
      29 C0           1.4789     7.3102     1.0657 C0            1 RES     
      30 C0           1.2618     8.8274     1.3619 C0            1 RES     
      31 C0           0.9110     9.7548     0.1581 C0            1 RES     
      32 C0           1.4239    11.2097     0.3881 C0            1 RES     
      33 C0           1.1961    12.1450    -0.8176 C0            1 RES     
      34 C0           2.1107    13.3975    -0.8309 C0            1 RES     
      35 C0           1.9965    14.3166     0.3940 C0            1 RES     
      36 C0           2.9140    15.5375     0.2416 C0            1 RES     
      37 C0           1.9980     3.1721    -1.0511 C0            1 RES     
      38 C0           3.5955     3.5367    -1.0896 C0            1 RES     
      39 C0           3.8956     5.0534    -0.7572 C0            1 RES     
      40 C0           5.2769     5.6240    -1.0621 C0            1 RES     
      41 C0           5.4254     7.1427    -0.8596 C0            1 RES     
      42 C0           5.4492     7.5561     0.6266 C0            1 RES     
      43 C0           6.1017     8.9345     0.8367 C0            1 RES     
      44 C0           5.3086    10.0868     0.2449 C0            1 RES     
      45 C0           4.6592     2.5307    -0.4532 C0            1 RES     
      46 C0           6.0138     2.5299    -1.2588 C0            1 RES     
      47 C0           7.1836     1.5425    -0.9937 C0            1 RES     
      48 C0           8.2603     1.9088     0.0798 C0            1 RES     
      49 C0           9.6382     1.3450    -0.3878 C0            1 RES     
      50 C0          10.8616     1.6138     0.5151 C0            1 RES     
      51 C0          12.1513     1.2090    -0.2423 C0            1 RES     
      52 C0          13.4254     1.3781     0.5840 C0            1 RES     
      53 H4           2.6997     0.8262     0.4520 H4            1 RES     
      54 H5           3.5081    -1.1657     0.3302 H5            1 RES     
      55 H4          -0.8114     4.1592    -2.0246 H4            1 RES     
      56 H6           1.8854     4.7695     1.4571 H6            1 RES     
      57 H6           1.5855     5.2805    -0.2759 H6            1 RES     
      58 H6          -0.1339     6.0775     1.9199 H6            1 RES     
      59 H6          -0.4591     7.5841    -0.5998 H6            1 RES     
      60 H6          -0.7086     5.9410    -0.9732 H6            1 RES     
      61 H6          -2.3400     5.7893     1.0488 H6            1 RES     
      62 H6          -2.0786     7.5691     1.2445 H6            1 RES     
      63 H6          -3.0384     7.8642    -1.1328 H6            1 RES     
      64 H6          -3.3207     6.0785    -1.1596 H6            1 RES     
      65 H6          -4.4994     8.1357     0.8295 H6            1 RES     
      66 H6          -4.7196     6.3481     0.9748 H6            1 RES     
      67 H6          -5.6767     8.0360    -1.4255 H6            1 RES     
      68 H6          -5.8828     6.2541    -1.1978 H6            1 RES     
      69 H6          -7.2019     6.6875     0.9060 H6            1 RES     
      70 H6          -7.0187     8.4663     0.6380 H6            1 RES     
      71 H6          -7.9494     7.4649    -0.5387 H6            1 RES     
      72 H6           2.1178     6.9544     1.9036 H6            1 RES     
      73 H6           2.1177     7.3031     0.1545 H6            1 RES     
      74 H6           0.6151     9.0124     2.2431 H6            1 RES     
      75 H6           2.2870     9.1476     1.6545 H6            1 RES     
      76 H6           1.4540     9.3868    -0.7417 H6            1 RES     
      77 H6          -0.1777     9.7400    -0.0522 H6            1 RES     
      78 H6           0.9845    11.6588     1.3037 H6            1 RES     
      79 H6           2.5132    11.1519     0.5327 H6            1 RES     
      80 H6           1.4486    11.5971    -1.7518 H6            1 RES     
      81 H6           0.1242    12.4316    -0.8675 H6            1 RES     
      82 H6           1.8671    13.9870    -1.7425 H6            1 RES     
      83 H6           3.1693    13.0648    -0.9191 H6            1 RES     
      84 H6           2.3005    13.7628     1.3073 H6            1 RES     
      85 H6           0.9501    14.6673     0.5104 H6            1 RES     
      86 H6           2.6212    16.1370    -0.6475 H6            1 RES     
      87 H6           3.9742    15.2234     0.1260 H6            1 RES     
      88 H6           2.8383    16.1859     1.1403 H6            1 RES     
      89 H6           1.8950     2.1390    -1.4497 H6            1 RES     
      90 H6           1.5713     3.8172    -1.8529 H6            1 RES     
      91 H6           3.7767     3.4329    -2.1814 H6            1 RES     
      92 H6           3.7188     5.2438     0.3183 H6            1 RES     
      93 H6           3.2286     5.6595    -1.4070 H6            1 RES     
      94 H6           6.0245     5.1765    -0.3837 H6            1 RES     
      95 H6           5.4957     5.4062    -2.1299 H6            1 RES     
      96 H6           6.4224     7.3885    -1.2827 H6            1 RES     
      97 H6           4.6615     7.7126    -1.4341 H6            1 RES     
      98 H6           6.0974     6.8436     1.1794 H6            1 RES     
      99 H6           4.4341     7.5094     1.0742 H6            1 RES     
     100 H6           7.1205     8.9268     0.3918 H6            1 RES     
     101 H6           6.2076     9.1172     1.9280 H6            1 RES     
     102 H6           5.8492    11.0409     0.4247 H6            1 RES     
     103 H6           4.3390    10.1277     0.7613 H6            1 RES     
     104 H6           5.1588     9.9670    -0.8476 H6            1 RES     
     105 H6           4.7796     2.7000     0.6393 H6            1 RES     
     106 H6           4.3080     1.5000    -0.6230 H6            1 RES     
     107 H6           5.6926     2.2970    -2.2969 H6            1 RES     
     108 H6           6.5127     3.4906    -1.3295 H6            1 RES     
     109 H6           7.7309     1.6202    -1.9601 H6            1 RES     
     110 H6           6.8604     0.4836    -0.9190 H6            1 RES     
     111 H6           7.9601     1.5345     1.0826 H6            1 RES     
     112 H6           8.3841     3.0122     0.1384 H6            1 RES     
     113 H6           9.8599     1.8328    -1.3641 H6            1 RES     
     114 H6           9.5618     0.2491    -0.5553 H6            1 RES     
     115 H6          10.7653     1.0305     1.4562 H6            1 RES     
     116 H6          10.9298     2.6949     0.7650 H6            1 RES     
     117 H6          12.2494     1.8423    -1.1529 H6            1 RES     
     118 H6          12.0878     0.1467    -0.5630 H6            1 RES     
     119 H6          13.4042     0.7108     1.4704 H6            1 RES     
     120 H6          13.5502     2.4313     0.9111 H6            1 RES     
     121 H6          14.3053     1.1006    -0.0393 H6            1 RES     
     122 C0          -7.4240     3.5875    -8.8413 C0            1 RES     
     123 C1          -8.0724     2.4191    -8.5530 C1            1 RES     
     124 C1          -8.6985     2.4341    -7.3595 C1            1 RES     
     125 C1          -8.4884     3.5445    -6.7244 C1            1 RES     
     126 C1          -7.6149     4.4291    -7.5151 C1            1 RES     
     127 C1          -6.4763     4.4175    -6.5062 C1            1 RES     
     128 C1          -6.7711     4.0036    -5.2394 C1            1 RES     
     129 S2          -8.5528     3.7104    -4.9747 S2            1 RES     
     130 C1          -5.7160     3.7498    -4.1708 C1            1 RES     
     131 C1          -4.3871     4.2486    -4.3089 C1            1 RES     
     132 N3          -3.4289     4.0054    -3.3683 N3            1 RES     
     133 C1          -3.6606     3.2652    -2.2611 C1            1 RES     
     134 C1          -4.9265     2.7267    -2.0676 C1            1 RES     
     135 C1          -5.9630     2.9735    -3.0187 C1            1 RES     
     136 N3          -7.1552     2.3822    -2.7244 N3            1 RES     
     137 S2          -6.8367     1.6015    -1.2984 S2            1 RES     
     138 N3          -5.2499     1.9522    -1.0035 N3            1 RES     
     139 S2          -9.3872     0.9669    -6.9420 S2            1 RES     
     140 C1          -8.8775     0.2374    -8.3826 C1            1 RES     
     141 C1          -8.1322     1.1459    -9.1441 C1            1 RES     
     142 C0          -8.1219     4.1905   -10.1543 C0            1 RES     
     143 C0          -9.3870     4.0251   -11.1375 C0            1 RES     
     144 C0          -9.6452     2.5907   -11.6974 C0            1 RES     
     145 C0         -11.0552     2.0930   -11.3270 C0            1 RES     
     146 C0         -11.3170     0.6179   -11.6810 C0            1 RES     
     147 C0         -12.7852     0.2694   -11.3704 C0            1 RES     
     148 C0         -13.0866    -1.2286   -11.5027 C0            1 RES     
     149 C0         -14.5644    -1.5068   -11.2179 C0            1 RES     
     150 C0          -9.1020     5.0385   -12.3336 C0            1 RES     
     151 C0          -9.9947     5.2896   -13.5893 C0            1 RES     
     152 C0          -9.8440     4.3063   -14.7903 C0            1 RES     
     153 C0         -10.1630     5.0067   -16.1469 C0            1 RES     
     154 C0          -9.9280     4.1079   -17.3787 C0            1 RES     
     155 C0          -9.7426     4.8872   -18.7068 C0            1 RES     
     156 C0         -10.9122     5.7958   -19.1128 C0            1 RES     
     157 C0         -10.6278     6.4741   -20.4600 C0            1 RES     
     158 C0          -5.9159     3.3711    -9.3432 C0            1 RES     
     159 C0          -4.9104     4.4929    -9.9889 C0            1 RES     
     160 C0          -5.4637     5.1270   -11.3279 C0            1 RES     
     161 C0          -4.5220     5.9356   -12.2144 C0            1 RES     
     162 C0          -5.1024     6.3727   -13.5714 C0            1 RES     
     163 C0          -6.1492     7.4993   -13.4479 C0            1 RES     
     164 C0          -6.3303     8.2724   -14.7668 C0            1 RES     
     165 C0          -6.9466     7.4475   -15.8833 C0            1 RES     
     166 C0          -4.1862     5.5548    -9.0421 C0            1 RES     
     167 C0          -2.7456     5.9168    -9.5688 C0            1 RES     
     168 C0          -1.7265     6.7899    -8.7859 C0            1 RES     
     169 C0          -1.7672     8.3441    -8.9559 C0            1 RES     
     170 C0          -0.3099     8.8923    -8.8526 C0            1 RES     
     171 C0          -0.1075    10.4140    -9.0184 C0            1 RES     
     172 C0           1.4072    10.7149    -9.1444 C0            1 RES     
     173 C0           1.7287    12.2046    -9.2540 C0            1 RES     
     174 H4          -5.4819     4.6322    -6.7984 H4            1 RES     
     175 H5          -4.1078     4.8543    -5.1556 H5            1 RES     
     176 H4          -7.6463     0.8609   -10.0637 H4            1 RES     
     177 H6          -8.1210     5.2797    -9.9350 H6            1 RES     
     178 H6          -7.4567     3.9024   -10.9431 H6            1 RES     
     179 H6         -10.2981     4.3782   -10.6062 H6            1 RES     
     180 H6          -9.5364     2.5481   -12.7959 H6            1 RES     
     181 H6          -8.8760     1.9039   -11.3640 H6            1 RES     
     182 H6         -11.1994     2.1978   -10.2291 H6            1 RES     
     183 H6         -11.7930     2.7408   -11.8499 H6            1 RES     
     184 H6         -11.1153     0.4219   -12.7572 H6            1 RES     
     185 H6         -10.6377    -0.0160   -11.0692 H6            1 RES     
     186 H6         -13.4392     0.8440   -12.0641 H6            1 RES     
     187 H6         -13.0230     0.5714   -10.3270 H6            1 RES     
     188 H6         -12.8429    -1.5875   -12.5255 H6            1 RES     
     189 H6         -12.4694    -1.7911   -10.7680 H6            1 RES     
     190 H6         -14.8405    -1.1498   -10.2021 H6            1 RES     
     191 H6         -15.2042    -0.9912   -11.9662 H6            1 RES     
     192 H6         -14.7640    -2.5976   -11.2737 H6            1 RES     
     193 H6          -9.0380     6.0320   -11.8377 H6            1 RES     
     194 H6          -8.0945     4.8300   -12.7576 H6            1 RES     
     195 H6         -11.0550     5.4936   -13.3379 H6            1 RES     
     196 H6          -9.5758     6.2463   -13.9745 H6            1 RES     
     197 H6          -8.7773     3.9945   -14.8602 H6            1 RES     
     198 H6         -10.4704     3.4026   -14.6464 H6            1 RES     
     199 H6         -11.1969     5.4114   -16.1655 H6            1 RES     
     200 H6          -9.4692     5.8549   -16.2465 H6            1 RES     
     201 H6          -8.9769     3.5484   -17.2408 H6            1 RES     
     202 H6         -10.7522     3.3679   -17.4607 H6            1 RES     
     203 H6          -9.5714     4.1437   -19.5165 H6            1 RES     
     204 H6          -8.8261     5.5140   -18.6272 H6            1 RES     
     205 H6         -11.0553     6.5868   -18.3466 H6            1 RES     
     206 H6         -11.8440     5.1998   -19.2016 H6            1 RES     
     207 H6         -10.5085     5.7138   -21.2621 H6            1 RES     
     208 H6          -9.7003     7.0847   -20.4072 H6            1 RES     
     209 H6         -11.4707     7.1430   -20.7355 H6            1 RES     
     210 H6          -5.3626     2.8867    -8.5090 H6            1 RES     
     211 H6          -5.9604     2.5862   -10.1325 H6            1 RES     
     212 H6          -4.0763     3.8276   -10.3007 H6            1 RES     
     213 H6          -6.3167     5.7946   -11.1022 H6            1 RES     
     214 H6          -5.7550     4.2795   -11.9846 H6            1 RES     
     215 H6          -4.2504     6.8790   -11.7089 H6            1 RES     
     216 H6          -3.6343     5.2990   -12.4199 H6            1 RES     
     217 H6          -4.2370     6.7909   -14.1279 H6            1 RES     
     218 H6          -5.4942     5.5073   -14.1511 H6            1 RES     
     219 H6          -5.7723     8.2514   -12.7229 H6            1 RES     
     220 H6          -7.1156     7.1110   -13.0631 H6            1 RES     
     221 H6          -5.3428     8.6584   -15.1012 H6            1 RES     
     222 H6          -6.9926     9.1456   -14.5812 H6            1 RES     
     223 H6          -7.0309     8.0685   -16.8010 H6            1 RES     
     224 H6          -7.9558     7.1506   -15.5641 H6            1 RES     
     225 H6          -6.3374     6.5510   -16.1191 H6            1 RES     
     226 H6          -4.8342     6.4372    -8.8465 H6            1 RES     
     227 H6          -3.9475     5.0622    -8.0857 H6            1 RES     
     228 H6          -2.2478     4.9265    -9.6499 H6            1 RES     
     229 H6          -2.7079     6.3315   -10.5705 H6            1 RES     
     230 H6          -0.7804     6.4896    -9.2900 H6            1 RES     
     231 H6          -1.6077     6.4872    -7.7250 H6            1 RES     
     232 H6          -2.4537     8.8039    -8.2121 H6            1 RES     
     233 H6          -2.1235     8.6096    -9.9751 H6            1 RES     
     234 H6           0.2636     8.4113    -9.6773 H6            1 RES     
     235 H6           0.1435     8.5829    -7.8864 H6            1 RES     
     236 H6          -0.5366    10.9446    -8.1411 H6            1 RES     
     237 H6          -0.6117    10.7746    -9.9413 H6            1 RES     
     238 H6           1.8004    10.2135   -10.0576 H6            1 RES     
     239 H6           1.9511    10.3095    -8.2640 H6            1 RES     
     240 H6           1.4166    12.7376    -8.3320 H6            1 RES     
     241 H6           1.2270    12.6557   -10.1353 H6            1 RES     
     242 H6           2.8279    12.3338    -9.3752 H6            1 RES     
     243 C0          -7.8778    -8.6330   -10.6420 C0            1 RES     
     244 C1          -8.0768    -9.0220    -9.3467 C1            1 RES     
     245 C1          -9.2515    -8.6027    -8.8357 C1            1 RES     
     246 C1          -9.9034    -7.8661    -9.6800 C1            1 RES     
     247 C1          -9.1345    -7.7149   -10.9277 C1            1 RES     
     248 C1          -8.9530    -6.2114   -10.7832 C1            1 RES     
     249 C1          -9.7829    -5.5649    -9.9136 C1            1 RES     
     250 S2         -11.0821    -6.6438    -9.2220 S2            1 RES     
     251 C1          -9.6070    -4.1067    -9.5101 C1            1 RES     
     252 C1          -8.7777    -3.2247   -10.2637 C1            1 RES     
     253 N3          -8.5950    -1.9234    -9.8957 N3            1 RES     
     254 C1          -9.1626    -1.3877    -8.7920 C1            1 RES     
     255 C1          -9.9673    -2.1919    -7.9945 C1            1 RES     
     256 C1         -10.1995    -3.5543    -8.3548 C1            1 RES     
     257 N3         -10.9950    -4.2424    -7.4881 N3            1 RES     
     258 S2         -11.3587    -3.1048    -6.3400 S2            1 RES     
     259 N3         -10.5600    -1.7547    -6.8569 N3            1 RES     
     260 S2          -9.4476    -8.9650    -7.2135 S2            1 RES     
     261 C1          -7.9394    -9.7301    -7.1294 C1            1 RES     
     262 C1          -7.2868    -9.6437    -8.3652 C1            1 RES     
     263 C0          -7.7831    -9.9745   -11.5171 C0            1 RES     
     264 C0          -8.0034   -11.5693   -11.4664 C0            1 RES     
     265 C0          -7.3118   -12.3261   -10.2889 C0            1 RES     
     266 C0          -8.3405   -13.0987    -9.4417 C0            1 RES     
     267 C0          -7.7626   -13.7165    -8.1557 C0            1 RES     
     268 C0          -8.8504   -14.5532    -7.4557 C0            1 RES     
     269 C0          -8.4275   -15.0434    -6.0652 C0            1 RES     
     270 C0          -9.5322   -15.8963    -5.4370 C0            1 RES     
     271 C0          -7.4448   -12.0971   -12.8621 C0            1 RES     
     272 C0          -7.3915   -13.5766   -13.3573 C0            1 RES     
     273 C0          -6.1874   -14.4509   -12.8908 C0            1 RES     
     274 C0          -5.8370   -15.5496   -13.9410 C0            1 RES     
     275 C0          -4.5864   -16.3771   -13.5785 C0            1 RES     
     276 C0          -3.9301   -17.0971   -14.7853 C0            1 RES     
     277 C0          -4.8335   -18.0803   -15.5438 C0            1 RES     
     278 C0          -4.0591   -18.7582   -16.6825 C0            1 RES     
     279 C0          -6.4366    -7.9756   -10.8947 C0            1 RES     
     280 C0          -5.7518    -7.6004   -12.3357 C0            1 RES     
     281 C0          -5.5515    -8.8566   -13.2753 C0            1 RES     
     282 C0          -4.6482    -8.7360   -14.4984 C0            1 RES     
     283 C0          -4.3831   -10.0485   -15.2577 C0            1 RES     
     284 C0          -5.6057   -10.5425   -16.0586 C0            1 RES     
     285 C0          -5.2089   -11.5099   -17.1884 C0            1 RES     
     286 C0          -4.6511   -12.8342   -16.6964 C0            1 RES     
     287 C0          -6.2177    -6.2928   -13.1242 C0            1 RES     
     288 C0          -5.0216    -5.6273   -13.9055 C0            1 RES     
     289 C0          -5.1114    -4.2564   -14.6310 C0            1 RES     
     290 C0          -5.6087    -4.2108   -16.1131 C0            1 RES     
     291 C0          -4.8558    -3.0618   -16.8534 C0            1 RES     
     292 C0          -5.1739    -2.8494   -18.3493 C0            1 RES     
     293 C0          -4.1491    -1.8551   -18.9509 C0            1 RES     
     294 C0          -4.4066    -1.5244   -20.4203 C0            1 RES     
     295 H4          -8.1582    -5.7056   -11.2658 H4            1 RES     
     296 H5          -8.2869    -3.5587   -11.1633 H5            1 RES     
     297 H4          -6.2785    -9.9987    -8.5078 H4            1 RES     
     298 H6          -8.3185    -9.6812   -12.4454 H6            1 RES     
     299 H6          -6.7285   -10.1128   -11.6454 H6            1 RES     
     300 H6          -9.0960   -11.7760   -11.4405 H6            1 RES     
     301 H6          -6.5466   -13.0385   -10.6459 H6            1 RES     
     302 H6          -6.7253   -11.6434    -9.6851 H6            1 RES     
     303 H6          -9.1530   -12.4034    -9.1357 H6            1 RES     
     304 H6          -8.7744   -13.8996   -10.0804 H6            1 RES     
     305 H6          -6.8897   -14.3681    -8.3809 H6            1 RES     
     306 H6          -7.4291   -12.8910    -7.4886 H6            1 RES     
     307 H6          -9.0940   -15.4270    -8.1009 H6            1 RES     
     308 H6          -9.7674   -13.9366    -7.3324 H6            1 RES     
     309 H6          -7.4979   -15.6483    -6.1300 H6            1 RES     
     310 H6          -8.2392   -14.1643    -5.4103 H6            1 RES     
     311 H6         -10.4795   -15.3189    -5.3667 H6            1 RES     
     312 H6          -9.7107   -16.8065    -6.0491 H6            1 RES     
     313 H6          -9.2352   -16.2106    -4.4143 H6            1 RES     
     314 H6          -8.0703   -11.5753   -13.6193 H6            1 RES     
     315 H6          -6.4040   -11.7292   -13.0024 H6            1 RES     
     316 H6          -8.3617   -14.1044   -13.2622 H6            1 RES     
     317 H6          -7.2154   -13.4416   -14.4482 H6            1 RES     
     318 H6          -5.2842   -13.8029   -12.8257 H6            1 RES     
     319 H6          -6.3801   -14.8944   -11.8928 H6            1 RES     
     320 H6          -6.6974   -16.2263   -14.1281 H6            1 RES     
     321 H6          -5.6039   -15.0349   -14.8852 H6            1 RES     
     322 H6          -3.8000   -15.6920   -13.1926 H6            1 RES     
     323 H6          -4.8391   -17.0975   -12.7718 H6            1 RES     
     324 H6          -3.0399   -17.6486   -14.4094 H6            1 RES     
     325 H6          -3.5696   -16.3288   -15.5056 H6            1 RES     
     326 H6          -5.6949   -17.5344   -15.9835 H6            1 RES     
     327 H6          -5.2105   -18.8619   -14.8521 H6            1 RES     
     328 H6          -3.2037   -19.3422   -16.2789 H6            1 RES     
     329 H6          -3.6685   -18.0033   -17.3992 H6            1 RES     
     330 H6          -4.7259   -19.4528   -17.2363 H6            1 RES     
     331 H6          -6.3826    -7.0601   -10.2657 H6            1 RES     
     332 H6          -5.6944    -8.6669   -10.4337 H6            1 RES     
     333 H6          -4.7325    -7.3295   -11.9846 H6            1 RES     
     334 H6          -6.5321    -9.2015   -13.6545 H6            1 RES     
     335 H6          -5.0400    -9.6317   -12.6653 H6            1 RES     
     336 H6          -5.1162    -8.0702   -15.2448 H6            1 RES     
     337 H6          -3.6672    -8.3489   -14.1474 H6            1 RES     
     338 H6          -3.5915    -9.7946   -15.9941 H6            1 RES     
     339 H6          -3.9825   -10.8404   -14.5862 H6            1 RES     
     340 H6          -6.0642    -9.6716   -16.5731 H6            1 RES     
     341 H6          -6.3738   -10.9848   -15.3896 H6            1 RES     
     342 H6          -4.4562   -11.0176   -17.8419 H6            1 RES     
     343 H6          -6.1075   -11.7258   -17.8061 H6            1 RES     
     344 H6          -4.3765   -13.4680   -17.5668 H6            1 RES     
     345 H6          -5.4424   -13.3412   -16.1261 H6            1 RES     
     346 H6          -3.7503   -12.6936   -16.0645 H6            1 RES     
     347 H6          -7.1158    -6.4905   -13.7496 H6            1 RES     
     348 H6          -6.4555    -5.5085   -12.3874 H6            1 RES     
     349 H6          -4.2589    -5.4653   -13.1136 H6            1 RES     
     350 H6          -4.5341    -6.2626   -14.6374 H6            1 RES     
     351 H6          -4.0305    -3.9994   -14.7027 H6            1 RES     
     352 H6          -5.5670    -3.4568   -14.0111 H6            1 RES     
     353 H6          -6.7138    -4.0977   -16.1545 H6            1 RES     
     354 H6          -5.3308    -5.1494   -16.6403 H6            1 RES     
     355 H6          -3.7722    -3.3132   -16.7992 H6            1 RES     
     356 H6          -5.0171    -2.0993   -16.3219 H6            1 RES     
     357 H6          -6.2071    -2.4546   -18.4580 H6            1 RES     
     358 H6          -5.0934    -3.8097   -18.9037 H6            1 RES     
     359 H6          -3.1297    -2.2966   -18.8748 H6            1 RES     
     360 H6          -4.1592    -0.9032   -18.3772 H6            1 RES     
     361 H6          -5.3863    -1.0166   -20.5376 H6            1 RES     
     362 H6          -4.3833    -2.4419   -21.0443 H6            1 RES     
     363 H6          -3.6118    -0.8352   -20.7850 H6            1 RES     
     364 C0          -2.5850   -11.7602     0.0815 C0            1 RES     
     365 C1          -3.3746   -11.0240     0.9202 C1            1 RES     
     366 C1          -4.6633   -11.4190     0.9272 C1            1 RES     
     367 C1          -4.8729   -12.3783     0.0808 C1            1 RES     
     368 C1          -3.6265   -12.7167    -0.6284 C1            1 RES     
     369 C1          -4.1427   -12.3000    -1.9974 C1            1 RES     
     370 C1          -5.4940   -12.1730    -2.1411 C1            1 RES     
     371 S2          -6.4280   -12.7132    -0.6692 S2            1 RES     
     372 C1          -6.1562   -11.5814    -3.3786 C1            1 RES     
     373 C1          -5.4400   -11.4347    -4.6030 C1            1 RES     
     374 N3          -6.0177   -10.8833    -5.7096 N3            1 RES     
     375 C1          -7.2884   -10.4223    -5.7197 C1            1 RES     
     376 C1          -8.0430   -10.5111    -4.5566 C1            1 RES     
     377 C1          -7.4821   -11.0988    -3.3820 C1            1 RES     
     378 N3          -8.3155   -11.1173    -2.3037 N3            1 RES     
     379 S2          -9.6928   -10.4084    -2.8910 S2            1 RES     
     380 N3          -9.3157   -10.0556    -4.4598 N3            1 RES     
     381 S2          -5.6611   -10.4446     1.8525 S2            1 RES     
     382 C1          -4.3766    -9.4388     2.3059 C1            1 RES     
     383 C1          -3.1949    -9.8573     1.6821 C1            1 RES     
     384 C0          -1.4877   -12.4861     1.0000 C0            1 RES     
     385 C0          -1.0847   -12.8020     2.5272 C0            1 RES     
     386 C0          -1.0441   -11.5805     3.4988 C0            1 RES     
     387 C0          -1.9974   -11.7847     4.6915 C0            1 RES     
     388 C0          -2.1540   -10.5471     5.5933 C0            1 RES     
     389 C0          -3.0347   -10.9049     6.8057 C0            1 RES     
     390 C0          -3.4108    -9.6840     7.6546 C0            1 RES     
     391 C0          -4.2533   -10.1066     8.8604 C0            1 RES     
     392 C0           0.3558   -13.4762     2.4318 C0            1 RES     
     393 C0           1.2421   -13.9774     3.6150 C0            1 RES     
     394 C0           2.1200   -12.9229     4.3564 C0            1 RES     
     395 C0           3.4136   -13.5665     4.9437 C0            1 RES     
     396 C0           4.3706   -12.5481     5.5977 C0            1 RES     
     397 C0           5.8344   -13.0443     5.7258 C0            1 RES     
     398 C0           6.0306   -14.3318     6.5396 C0            1 RES     
     399 C0           7.5196   -14.6927     6.6303 C0            1 RES     
     400 C0          -1.6654   -10.8621    -0.8781 C0            1 RES     
     401 C0          -0.4419   -11.3683    -1.8442 C0            1 RES     
     402 C0           0.7371   -12.0564    -1.0460 C0            1 RES     
     403 C0           2.0736   -12.2883    -1.7435 C0            1 RES     
     404 C0           3.2083   -12.8104    -0.8438 C0            1 RES     
     405 C0           3.0270   -14.2872    -0.4358 C0            1 RES     
     406 C0           4.3535   -14.9389    -0.0053 C0            1 RES     
     407 C0           4.9301   -14.3691     1.2792 C0            1 RES     
     408 C0          -0.7663   -12.0878    -3.2319 C0            1 RES     
     409 C0           0.3030   -11.7345    -4.3345 C0            1 RES     
     410 C0           0.1795   -12.1413    -5.8288 C0            1 RES     
     411 C0           0.7236   -13.5346    -6.2857 C0            1 RES     
     412 C0           1.2798   -13.3976    -7.7372 C0            1 RES     
     413 C0           1.8962   -14.6561    -8.3858 C0            1 RES     
     414 C0           2.6144   -14.2519    -9.6980 C0            1 RES     
     415 C0           3.2132   -15.4347   -10.4577 C0            1 RES     
     416 H4          -3.4780   -12.0312    -2.7761 H4            1 RES     
     417 H5          -4.4224   -11.7781    -4.6945 H5            1 RES     
     418 H4          -2.2721    -9.3067     1.7728 H4            1 RES     
     419 H6          -1.4010   -13.4802     0.5116 H6            1 RES     
     420 H6          -0.6211   -11.8663     0.8876 H6            1 RES     
     421 H6          -1.7878   -13.5642     2.9294 H6            1 RES     
     422 H6          -0.0279   -11.3955     3.8907 H6            1 RES     
     423 H6          -1.2561   -10.6599     2.9677 H6            1 RES     
     424 H6          -3.0091   -12.0409     4.3067 H6            1 RES     
     425 H6          -1.6138   -12.6396     5.2912 H6            1 RES     
     426 H6          -1.1657   -10.1862     5.9543 H6            1 RES     
     427 H6          -2.6343    -9.7383     4.9995 H6            1 RES     
     428 H6          -2.4873   -11.6422     7.4349 H6            1 RES     
     429 H6          -3.9784   -11.3734     6.4503 H6            1 RES     
     430 H6          -2.4984    -9.1638     8.0169 H6            1 RES     
     431 H6          -4.0047    -8.9774     7.0341 H6            1 RES     
     432 H6          -5.1712   -10.6386     8.5286 H6            1 RES     
     433 H6          -3.6672   -10.7799     9.5223 H6            1 RES     
     434 H6          -4.5567    -9.2127     9.4447 H6            1 RES     
     435 H6           0.1904   -14.3821     1.8082 H6            1 RES     
     436 H6           1.0334   -12.8110     1.8516 H6            1 RES     
     437 H6           0.7005   -14.6460     4.3140 H6            1 RES     
     438 H6           1.9841   -14.6157     3.0846 H6            1 RES     
     439 H6           2.4723   -12.1714     3.6140 H6            1 RES     
     440 H6           1.5372   -12.4010     5.1422 H6            1 RES     
     441 H6           3.1767   -14.3788     5.6628 H6            1 RES     
     442 H6           3.9656   -14.0133     4.1032 H6            1 RES     
     443 H6           4.4309   -11.6442     4.9526 H6            1 RES     
     444 H6           3.9651   -12.2385     6.5842 H6            1 RES     
     445 H6           6.4294   -12.2309     6.1971 H6            1 RES     
     446 H6           6.2445   -13.2119     4.7046 H6            1 RES     
     447 H6           5.4969   -15.1715     6.0463 H6            1 RES     
     448 H6           5.6314   -14.1976     7.5663 H6            1 RES     
     449 H6           8.0854   -13.8876     7.1474 H6            1 RES     
     450 H6           7.9535   -14.8386     5.6172 H6            1 RES     
     451 H6           7.6493   -15.6347     7.2044 H6            1 RES     
     452 H6          -2.3509   -10.2622    -1.5161 H6            1 RES     
     453 H6          -1.1745   -10.1078    -0.2215 H6            1 RES     
     454 H6          -0.0447   -10.3802    -2.1628 H6            1 RES     
     455 H6           0.4116   -13.0470    -0.6760 H6            1 RES     
     456 H6           1.0065   -11.3658    -0.2183 H6            1 RES     
     457 H6           1.9586   -13.0597    -2.5253 H6            1 RES     
     458 H6           2.4013   -11.3121    -2.1621 H6            1 RES     
     459 H6           4.1192   -12.7561    -1.4768 H6            1 RES     
     460 H6           3.3687   -12.1547     0.0410 H6            1 RES     
     461 H6           2.7009   -14.8612    -1.3289 H6            1 RES     
     462 H6           2.2433   -14.3968     0.3432 H6            1 RES     
     463 H6           5.0985   -14.8226    -0.8222 H6            1 RES     
     464 H6           4.1839   -16.0265     0.1491 H6            1 RES     
     465 H6           5.8893   -14.8787     1.5141 H6            1 RES     
     466 H6           4.2145   -14.5732     2.0884 H6            1 RES     
     467 H6           5.1204   -13.2793     1.1987 H6            1 RES     
     468 H6          -0.9377   -13.1782    -3.0970 H6            1 RES     
     469 H6          -1.6733   -11.6290    -3.6579 H6            1 RES     
     470 H6           0.2909   -10.6234    -4.3543 H6            1 RES     
     471 H6           1.3265   -11.9985    -4.0904 H6            1 RES     
     472 H6           0.8839   -11.4135    -6.2908 H6            1 RES     
     473 H6          -0.8137   -11.9144    -6.2684 H6            1 RES     
     474 H6          -0.0650   -14.3133    -6.1987 H6            1 RES     
     475 H6           1.5871   -13.8357    -5.6533 H6            1 RES     
     476 H6           2.0965   -12.6420    -7.6885 H6            1 RES     
     477 H6           0.4864   -13.0100    -8.4118 H6            1 RES     
     478 H6           1.0952   -15.3977    -8.5947 H6            1 RES     
     479 H6           2.6463   -15.1156    -7.7061 H6            1 RES     
     480 H6           3.4429   -13.5489    -9.4546 H6            1 RES     
     481 H6           1.9047   -13.7311   -10.3765 H6            1 RES     
     482 H6           2.4132   -16.1314   -10.7835 H6            1 RES     
     483 H6           3.9503   -15.9780    -9.8305 H6            1 RES     
     484 H6           3.7380   -15.0590   -11.3650 H6            1 RES     
     485 C0          -4.3065    -0.8595     5.6492 C0            1 RES     
     486 C1          -5.6438    -0.7155     5.4049 C1            1 RES     
     487 C1          -6.4029    -1.6502     6.0105 C1            1 RES     
     488 C1          -5.6769    -2.5179     6.6433 C1            1 RES     
     489 C1          -4.2464    -2.2044     6.4807 C1            1 RES     
     490 C1          -3.9216    -3.4836     5.7241 C1            1 RES     
     491 C1          -4.8247    -4.5035     5.8090 C1            1 RES     
     492 S2          -6.1803    -4.1682     6.9839 S2            1 RES     
     493 C1          -4.7469    -5.7681     4.9636 C1            1 RES     
     494 C1          -3.5501    -6.1268     4.2763 C1            1 RES     
     495 N3          -3.4788    -7.2448     3.4970 N3            1 RES     
     496 C1          -4.5306    -8.0721     3.3050 C1            1 RES     
     497 C1          -5.7381    -7.7761     3.9250 C1            1 RES     
     498 C1          -5.8494    -6.6259     4.7642 C1            1 RES     
     499 N3          -7.0859    -6.4361     5.3052 N3            1 RES     
     500 S2          -7.9497    -7.7169     4.7071 S2            1 RES     
     501 N3          -6.8547    -8.5293     3.7751 N3            1 RES     
     502 S2          -8.0267    -1.5584     5.6152 S2            1 RES     
     503 C1          -7.7779    -0.2222     4.6053 C1            1 RES     
     504 C1          -6.4154     0.0974     4.5577 C1            1 RES     
     505 C0          -3.8351     0.4616     6.4283 C0            1 RES     
     506 C0          -4.3731     1.7879     7.1672 C0            1 RES     
     507 C0          -5.3907     2.6610     6.3672 C0            1 RES     
     508 C0          -6.7126     2.8262     7.1406 C0            1 RES     
     509 C0          -7.8312     3.5153     6.3385 C0            1 RES     
     510 C0          -9.0578     3.7254     7.2467 C0            1 RES     
     511 C0         -10.2912     4.2231     6.4826 C0            1 RES     
     512 C0         -11.4632     4.4468     7.4411 C0            1 RES     
     513 C0          -3.0594     2.6306     7.4879 C0            1 RES     
     514 C0          -2.9805     4.0226     8.1899 C0            1 RES     
     515 C0          -3.2103     5.2891     7.3093 C0            1 RES     
     516 C0          -2.4291     6.5204     7.8628 C0            1 RES     
     517 C0          -2.5368     7.7747     6.9709 C0            1 RES     
     518 C0          -1.4094     8.8150     7.1999 C0            1 RES     
     519 C0          -1.2964     9.3686     8.6278 C0            1 RES     
     520 C0          -0.1784    10.4166     8.7146 C0            1 RES     
     521 C0          -3.4068    -0.7951     4.3228 C0            1 RES     
     522 C0          -1.7731    -0.7013     4.2309 C0            1 RES     
     523 C0          -1.1847     0.5953     4.9190 C0            1 RES     
     524 C0           0.2623     0.9928     4.6455 C0            1 RES     
     525 C0           0.6962     2.3519     5.2235 C0            1 RES     
     526 C0           0.8640     2.3321     6.7571 C0            1 RES     
     527 C0           1.7674     3.4734     7.2583 C0            1 RES     
     528 C0           1.1728     4.8578     7.0660 C0            1 RES     
     529 C0          -0.8838    -2.0038     4.4789 C0            1 RES     
     530 C0           0.4090    -2.0060     3.5775 C0            1 RES     
     531 C0           1.3887    -3.2064     3.4636 C0            1 RES     
     532 C0           2.5627    -3.3305     4.4894 C0            1 RES     
     533 C0           3.7906    -3.9628     3.7631 C0            1 RES     
     534 C0           5.0829    -4.1566     4.5856 C0            1 RES     
     535 C0           6.2401    -4.5442     3.6309 C0            1 RES     
     536 C0           7.5603    -4.8198     4.3490 C0            1 RES     
     537 H4          -3.0790    -3.5453     5.0866 H4            1 RES     
     538 H5          -2.6563    -5.5321     4.3722 H5            1 RES     
     539 H4          -6.0292     0.8685     3.9102 H4            1 RES     
     540 H6          -3.1085     0.0491     7.1607 H6            1 RES     
     541 H6          -3.3892     1.0578     5.6580 H6            1 RES     
     542 H6          -4.8299     1.4931     8.1375 H6            1 RES     
     543 H6          -4.9890     3.6651     6.1421 H6            1 RES     
     544 H6          -5.5528     2.2516     5.3768 H6            1 RES     
     545 H6          -7.0892     1.8212     7.4328 H6            1 RES     
     546 H6          -6.4969     3.4111     8.0620 H6            1 RES     
     547 H6          -7.4949     4.5003     5.9460 H6            1 RES     
     548 H6          -8.1011     2.8620     5.4795 H6            1 RES     
     549 H6          -8.7891     4.4592     8.0394 H6            1 RES     
     550 H6          -9.3267     2.7617     7.7318 H6            1 RES     
     551 H6         -10.0675     5.1765     5.9580 H6            1 RES     
     552 H6         -10.5864     3.4595     5.7297 H6            1 RES     
     553 H6         -11.7050     3.5098     7.9880 H6            1 RES     
     554 H6         -11.2111     5.2387     8.1789 H6            1 RES     
     555 H6         -12.3630     4.7654     6.8741 H6            1 RES     
     556 H6          -2.4587     1.9588     8.1395 H6            1 RES     
     557 H6          -2.4755     2.7689     6.5507 H6            1 RES     
     558 H6          -3.5409     4.0624     9.1456 H6            1 RES     
     559 H6          -1.9016     4.0774     8.4584 H6            1 RES     
     560 H6          -2.7862     5.0980     6.2977 H6            1 RES     
     561 H6          -4.2918     5.5115     7.2059 H6            1 RES     
     562 H6          -2.7359     6.7670     8.9012 H6            1 RES     
     563 H6          -1.3634     6.2471     7.8841 H6            1 RES     
     564 H6          -2.4325     7.4703     5.9064 H6            1 RES     
     565 H6          -3.5390     8.2360     7.0988 H6            1 RES     
     566 H6          -1.5825     9.6635     6.5015 H6            1 RES     
     567 H6          -0.4351     8.3501     6.9285 H6            1 RES     
     568 H6          -1.0574     8.5435     9.3315 H6            1 RES     
     569 H6          -2.2541     9.8408     8.9298 H6            1 RES     
     570 H6          -0.3969    11.2766     8.0450 H6            1 RES     
     571 H6           0.7996     9.9766     8.4217 H6            1 RES     
     572 H6          -0.0923    10.7970     9.7547 H6            1 RES     
     573 H6          -3.7160    -1.6477     3.6792 H6            1 RES     
     574 H6          -3.7444     0.1062     3.7616 H6            1 RES     
     575 H6          -1.6646    -0.5300     3.1380 H6            1 RES     
     576 H6          -1.2737     0.5098     6.0185 H6            1 RES     
     577 H6          -1.7584     1.4574     4.5162 H6            1 RES     
     578 H6           0.9456     0.2600     5.1097 H6            1 RES     
     579 H6           0.3879     1.0434     3.5423 H6            1 RES     
     580 H6           1.7007     2.5371     4.7877 H6            1 RES     
     581 H6           0.0241     3.1749     4.8927 H6            1 RES     
     582 H6           1.3952     1.3989     7.0406 H6            1 RES     
     583 H6          -0.1207     2.3318     7.2703 H6            1 RES     
     584 H6           2.7458     3.4209     6.7331 H6            1 RES     
     585 H6           1.9552     3.3299     8.3444 H6            1 RES     
     586 H6           1.8870     5.6238     7.4376 H6            1 RES     
     587 H6           0.2520     4.9141     7.6639 H6            1 RES     
     588 H6           0.9533     5.0685     5.9993 H6            1 RES     
     589 H6          -0.6841    -2.1627     5.5613 H6            1 RES     
     590 H6          -1.4257    -2.8762     4.0791 H6            1 RES     
     591 H6           0.0029    -1.8892     2.5496 H6            1 RES     
     592 H6           1.0719    -1.1582     3.7141 H6            1 RES     
     593 H6           1.8957    -2.9576     2.5042 H6            1 RES     
     594 H6           0.8804    -4.1772     3.2887 H6            1 RES     
     595 H6           2.2455    -3.9109     5.3829 H6            1 RES     
     596 H6           2.8894    -2.3214     4.8228 H6            1 RES     
     597 H6           4.0528    -3.2692     2.9321 H6            1 RES     
     598 H6           3.5068    -4.9427     3.3226 H6            1 RES     
     599 H6           4.9247    -4.9516     5.3460 H6            1 RES     
     600 H6           5.3598    -3.2119     5.1022 H6            1 RES     
     601 H6           6.4106    -3.7105     2.9127 H6            1 RES     
     602 H6           5.9680    -5.4524     3.0508 H6            1 RES     
     603 H6           7.4579    -5.6917     5.0278 H6            1 RES     
     604 H6           7.8912    -3.9321     4.9271 H6            1 RES     
     605 H6           8.3446    -5.0563     3.5949 H6            1 RES     
     606 C0         -12.9418     3.2822    -2.1652 C0            1 RES     
     607 C1         -13.7796     2.2025    -2.1331 C1            1 RES     
     608 C1         -14.3366     1.9922    -0.9239 C1            1 RES     
     609 C1         -13.8972     2.8356    -0.0430 C1            1 RES     
     610 C1         -12.9136     3.7473    -0.6531 C1            1 RES     
     611 C1         -11.7511     3.2726     0.2058 C1            1 RES     
     612 C1         -12.0582     2.5814     1.3420 C1            1 RES     
     613 S2         -13.8493     2.5236     1.6872 S2            1 RES     
     614 C1         -11.0193     1.8746     2.2029 C1            1 RES     
     615 C1          -9.6294     2.1669     2.0757 C1            1 RES     
     616 N3          -8.6896     1.5212     2.8255 N3            1 RES     
     617 C1          -9.0019     0.5542     3.7171 C1            1 RES     
     618 C1         -10.3349     0.1987     3.8810 C1            1 RES     
     619 C1         -11.3512     0.8636     3.1296 C1            1 RES     
     620 N3         -12.6168     0.4184     3.3696 N3            1 RES     
     621 S2         -12.3816    -0.7648     4.5051 S2            1 RES     
     622 N3         -10.7455    -0.7739     4.7309 N3            1 RES     
     623 S2         -15.2628     0.6005    -0.8420 S2            1 RES     
     624 C1         -14.9627     0.2207    -2.4647 C1            1 RES     
     625 C1         -14.0993     1.1680    -3.0284 C1            1 RES     
     626 C0         -13.5771     4.3282    -3.2029 C0            1 RES     
     627 C0         -14.8950     4.6489    -4.0717 C0            1 RES     
     628 C0         -15.4377     3.4857    -4.9606 C0            1 RES     
     629 C0         -16.8964     3.1440    -4.6025 C0            1 RES     
     630 C0         -17.4405     1.8864    -5.3039 C0            1 RES     
     631 C0         -18.9318     1.7122    -4.9587 C0            1 RES     
     632 C0         -19.5088     0.3784    -5.4495 C0            1 RES     
     633 C0         -20.9978     0.2794    -5.1098 C0            1 RES     
     634 C0         -14.4844     5.8904    -4.9821 C0            1 RES     
     635 C0         -15.3729     6.6193    -6.0386 C0            1 RES     
     636 C0         -15.4607     5.9922    -7.4638 C0            1 RES     
     637 C0         -15.7080     7.0803    -8.5535 C0            1 RES     
     638 C0         -15.6991     6.5279    -9.9941 C0            1 RES     
     639 C0         -15.4353     7.6001   -11.0832 C0            1 RES     
     640 C0         -16.4357     8.7644   -11.1255 C0            1 RES     
     641 C0         -16.0942     9.7299   -12.2687 C0            1 RES     
     642 C0         -11.5238     2.9672    -2.8458 C0            1 RES     
     643 C0         -10.3604     4.0421    -3.2670 C0            1 RES     
     644 C0         -10.8492     5.1010    -4.3351 C0            1 RES     
     645 C0          -9.8170     5.9556    -5.0636 C0            1 RES     
     646 C0         -10.3693     6.8373    -6.1981 C0            1 RES     
     647 C0         -11.1847     8.0428    -5.6862 C0            1 RES     
     648 C0         -11.2815     9.1668    -6.7336 C0            1 RES     
     649 C0         -12.0896     8.7926    -7.9641 C0            1 RES     
     650 C0          -9.4108     4.6697    -2.1477 C0            1 RES     
     651 C0          -7.9540     4.9206    -2.6944 C0            1 RES     
     652 C0          -6.7570     5.3659    -1.8097 C0            1 RES     
     653 C0          -6.5196     6.8918    -1.5624 C0            1 RES     
     654 C0          -4.9832     7.1436    -1.4568 C0            1 RES     
     655 C0          -4.5129     8.5977    -1.2368 C0            1 RES     
     656 C0          -2.9762     8.6686    -1.4216 C0            1 RES     
     657 C0          -2.3921    10.0575    -1.1672 C0            1 RES     
     658 H4         -10.7488     3.3929    -0.1121 H4            1 RES     
     659 H5          -9.2830     2.9272     1.3948 H5            1 RES     
     660 H4         -13.7169     1.0704    -4.0321 H4            1 RES     
     661 H6         -13.3662     5.3000    -2.7073 H6            1 RES     
     662 H6         -13.0132     4.1624    -4.0986 H6            1 RES     
     663 H6         -15.7003     4.9874    -3.3832 H6            1 RES     
     664 H6         -15.3893     3.7287    -6.0371 H6            1 RES     
     665 H6         -14.7929     2.6172    -4.8924 H6            1 RES     
     666 H6         -16.9681     2.9660    -3.5068 H6            1 RES     
     667 H6         -17.5261     4.0225    -4.8658 H6            1 RES     
     668 H6         -17.3281     1.9627    -6.4079 H6            1 RES     
     669 H6         -16.8616     1.0064    -4.9461 H6            1 RES     
     670 H6         -19.5005     2.5542    -5.4132 H6            1 RES     
     671 H6         -19.0617     1.7511    -3.8551 H6            1 RES     
     672 H6         -19.3825     0.2789    -6.5488 H6            1 RES     
     673 H6         -18.9721    -0.4573    -4.9491 H6            1 RES     
     674 H6         -21.1566     0.3844    -4.0146 H6            1 RES     
     675 H6         -21.5659     1.0782    -5.6334 H6            1 RES     
     676 H6         -21.3965    -0.7060    -5.4301 H6            1 RES     
     677 H6         -14.2163     6.6852    -4.2518 H6            1 RES     
     678 H6         -13.5529     5.6437    -5.5387 H6            1 RES     
     679 H6         -16.3649     6.9177    -5.6440 H6            1 RES     
     680 H6         -14.8037     7.5626    -6.1976 H6            1 RES     
     681 H6         -14.4737     5.5408    -7.7129 H6            1 RES     
     682 H6         -16.2350     5.1993    -7.5032 H6            1 RES     
     683 H6         -16.6498     7.6387    -8.3682 H6            1 RES     
     684 H6         -14.8756     7.7974    -8.4925 H6            1 RES     
     685 H6         -14.8615     5.8038   -10.0975 H6            1 RES     
     686 H6         -16.6479     5.9845   -10.1890 H6            1 RES     
     687 H6         -15.4410     7.0895   -12.0717 H6            1 RES     
     688 H6         -14.4167     8.0217   -10.9290 H6            1 RES     
     689 H6         -16.3958     9.3273   -10.1690 H6            1 RES     
     690 H6         -17.4642     8.3770   -11.2791 H6            1 RES     
     691 H6         -16.1535     9.2099   -13.2493 H6            1 RES     
     692 H6         -15.0689    10.1417   -12.1454 H6            1 RES     
     693 H6         -16.8117    10.5777   -12.2790 H6            1 RES     
     694 H6         -11.0309     2.1885    -2.2233 H6            1 RES     
     695 H6         -11.7481     2.4473    -3.8052 H6            1 RES     
     696 H6          -9.6779     3.3602    -3.8191 H6            1 RES     
     697 H6         -11.5538     5.8118    -3.8634 H6            1 RES     
     698 H6         -11.3210     4.5259    -5.1604 H6            1 RES     
     699 H6          -9.3538     6.6664    -4.3567 H6            1 RES     
     700 H6          -9.0716     5.2631    -5.5111 H6            1 RES     
     701 H6          -9.4684     7.2441    -6.7046 H6            1 RES     
     702 H6         -10.9396     6.2406    -6.9446 H6            1 RES     
     703 H6         -10.6432     8.4947    -4.8283 H6            1 RES     
     704 H6         -12.1872     7.7280    -5.3273 H6            1 RES     
     705 H6         -10.2565     9.4621    -7.0467 H6            1 RES     
     706 H6         -11.7630    10.0520    -6.2645 H6            1 RES     
     707 H6         -12.1008     9.6466    -8.6750 H6            1 RES     
     708 H6         -13.1203     8.5894    -7.6402 H6            1 RES     
     709 H6         -11.6669     7.9078    -8.4825 H6            1 RES     
     710 H6          -9.8761     5.5586    -1.6679 H6            1 RES     
     711 H6          -9.2227     3.9014    -1.3804 H6            1 RES     
     712 H6          -7.6508     3.9228    -3.0783 H6            1 RES     
     713 H6          -7.8871     5.5821    -3.5516 H6            1 RES     
     714 H6          -5.9064     5.0641    -2.4615 H6            1 RES     
     715 H6          -6.6470     4.7685    -0.8811 H6            1 RES     
     716 H6          -7.0750     7.2362    -0.6630 H6            1 RES     
     717 H6          -6.8678     7.4814    -2.4384 H6            1 RES     
     718 H6          -4.5464     6.8198    -2.4287 H6            1 RES     
     719 H6          -4.5502     6.5110    -0.6523 H6            1 RES     
     720 H6          -4.7964     8.9303    -0.2149 H6            1 RES     
     721 H6          -4.9844     9.2753    -1.9815 H6            1 RES     
     722 H6          -2.7242     8.3795    -2.4669 H6            1 RES     
     723 H6          -2.4758     7.9537    -0.7331 H6            1 RES     
     724 H6          -2.5582    10.3608    -0.1127 H6            1 RES     
     725 H6          -2.8426    10.8090    -1.8484 H6            1 RES     
     726 H6          -1.2946    10.0326    -1.3532 H6            1 RES     
     727 C0         -15.7133    -7.7287    -7.0506 C0            1 RES     
     728 C1         -15.9203    -8.4199    -5.8895 C1            1 RES     
     729 C1         -16.9732    -7.9699    -5.1784 C1            1 RES     
     730 C1         -17.5171    -6.9334    -5.7353 C1            1 RES     
     731 C1         -16.7919    -6.5741    -6.9666 C1            1 RES     
     732 C1         -16.3311    -5.2190    -6.4513 C1            1 RES     
     733 C1         -16.9872    -4.7086    -5.3687 C1            1 RES     
     734 S2         -18.4291    -5.7073    -4.8646 S2            1 RES     
     735 C1         -16.5283    -3.4665    -4.6160 C1            1 RES     
     736 C1         -15.5869    -2.5602    -5.1871 C1            1 RES     
     737 N3         -15.1517    -1.4581    -4.5102 N3            1 RES     
     738 C1         -15.5598    -1.1601    -3.2564 C1            1 RES     
     739 C1         -16.4607    -2.0087    -2.6252 C1            1 RES     
     740 C1         -16.9554    -3.1626    -3.3060 C1            1 RES     
     741 N3         -17.8228    -3.9217    -2.5787 N3            1 RES     
     742 S2         -17.9181    -3.0989    -1.1440 S2            1 RES     
     743 N3         -16.9100    -1.8090    -1.3623 N3            1 RES     
     744 S2         -17.1574    -8.7259    -3.6965 S2            1 RES     
     745 C1         -15.8130    -9.7216    -3.9579 C1            1 RES     
     746 C1         -15.2134    -9.4080    -5.1838 C1            1 RES     
     747 C0         -15.9068    -8.7754    -8.2512 C0            1 RES     
     748 C0         -16.4135   -10.2643    -8.5991 C0            1 RES     
     749 C0         -15.8189   -11.4179    -7.7312 C0            1 RES     
     750 C0         -16.9318   -12.2134    -7.0229 C0            1 RES     
     751 C0         -16.4183   -13.2464    -6.0037 C0            1 RES     
     752 C0         -17.6077   -14.0526    -5.4479 C0            1 RES     
     753 C0         -17.2183   -14.9678    -4.2803 C0            1 RES     
     754 C0         -18.4305   -15.7669    -3.7963 C0            1 RES     
     755 C0         -16.0263   -10.4734   -10.1305 C0            1 RES     
     756 C0         -16.2683   -11.7481   -10.9984 C0            1 RES     
     757 C0         -15.2248   -12.9023   -10.8923 C0            1 RES     
     758 C0         -15.1309   -13.7128   -12.2216 C0            1 RES     
     759 C0         -14.0380   -14.8017   -12.2076 C0            1 RES     
     760 C0         -13.5814   -15.2607   -13.6170 C0            1 RES     
     761 C0         -14.6839   -15.8359   -14.5179 C0            1 RES     
     762 C0         -14.1005   -16.2931   -15.8619 C0            1 RES     
     763 C0         -14.1891    -7.2733    -7.2568 C0            1 RES     
     764 C0         -13.5143    -6.6349    -8.6072 C0            1 RES     
     765 C0         -13.5916    -7.6004    -9.8573 C0            1 RES     
     766 C0         -12.7389    -7.2991   -11.0855 C0            1 RES     
     767 C0         -12.7545    -8.3780   -12.1833 C0            1 RES     
     768 C0         -14.0826    -8.4256   -12.9669 C0            1 RES     
     769 C0         -13.9227    -9.0976   -14.3427 C0            1 RES     
     770 C0         -13.5952   -10.5789   -14.2691 C0            1 RES     
     771 C0         -13.7682    -5.1032    -8.9785 C0            1 RES     
     772 C0         -12.5077    -4.4547    -9.6673 C0            1 RES     
     773 C0         -12.3777    -2.9421    -9.9970 C0            1 RES     
     774 C0         -12.9261    -2.4107   -11.3618 C0            1 RES     
     775 C0         -12.0100    -1.2426   -11.8431 C0            1 RES     
     776 C0         -12.3524    -0.5789   -13.1945 C0            1 RES     
     777 C0         -11.1914     0.3600   -13.6085 C0            1 RES     
     778 C0         -11.4514     1.1187   -14.9091 C0            1 RES     
     779 H4         -15.4801    -4.7378    -6.8572 H4            1 RES     
     780 H5         -15.2078    -2.7106    -6.1847 H5            1 RES     
     781 H4         -14.2950    -9.8707    -5.5084 H4            1 RES     
     782 H6         -16.4216    -8.1550    -9.0158 H6            1 RES     
     783 H6         -14.9026    -9.0445    -8.5098 H6            1 RES     
     784 H6         -17.5231   -10.2879    -8.5256 H6            1 RES     
     785 H6         -15.2148   -12.1207    -8.3325 H6            1 RES     
     786 H6         -15.0899   -11.0329    -7.0277 H6            1 RES     
     787 H6         -17.5878   -11.5051    -6.4706 H6            1 RES     
     788 H6         -17.5343   -12.7259    -7.8052 H6            1 RES     
     789 H6         -15.6912   -13.9454    -6.4727 H6            1 RES     
     790 H6         -15.9086   -12.7019    -5.1782 H6            1 RES     
     791 H6         -18.0371   -14.6635    -6.2735 H6            1 RES     
     792 H6         -18.3893   -13.3515    -5.0820 H6            1 RES     
     793 H6         -16.4195   -15.6759    -4.5884 H6            1 RES     
     794 H6         -16.8418   -14.3454    -3.4390 H6            1 RES     
     795 H6         -19.2515   -15.0835    -3.4886 H6            1 RES     
     796 H6         -18.8011   -16.4321    -4.6057 H6            1 RES     
     797 H6         -18.1494   -16.3939    -2.9242 H6            1 RES     
     798 H6         -16.5797    -9.6686   -10.6624 H6            1 RES     
     799 H6         -14.9432   -10.2572   -10.2668 H6            1 RES     
     800 H6         -17.3135   -12.1151   -10.9539 H6            1 RES     
     801 H6         -16.1209   -11.3500   -12.0274 H6            1 RES     
     802 H6         -14.2160   -12.4545   -10.7452 H6            1 RES     
     803 H6         -15.4494   -13.5646   -10.0317 H6            1 RES     
     804 H6         -16.1085   -14.1615   -12.4975 H6            1 RES     
     805 H6         -14.8511   -13.0045   -13.0158 H6            1 RES     
     806 H6         -13.1223   -14.3874   -11.7316 H6            1 RES     
     807 H6         -14.3812   -15.6640   -11.5975 H6            1 RES     
     808 H6         -12.7912   -16.0326   -13.4840 H6            1 RES     
     809 H6         -13.1196   -14.3944   -14.1417 H6            1 RES     
     810 H6         -15.4498   -15.0567   -14.7164 H6            1 RES     
     811 H6         -15.1656   -16.7044   -14.0227 H6            1 RES     
     812 H6         -13.3491   -17.0976   -15.7076 H6            1 RES     
     813 H6         -13.6115   -15.4454   -16.3895 H6            1 RES     
     814 H6         -14.9082   -16.6899   -16.5130 H6            1 RES     
     815 H6         -13.9391    -6.5871    -6.4181 H6            1 RES     
     816 H6         -13.5659    -8.1766    -7.0647 H6            1 RES     
     817 H6         -12.4475    -6.6420    -8.2949 H6            1 RES     
     818 H6         -14.6352    -7.6622   -10.2196 H6            1 RES     
     819 H6         -13.2034    -8.5861    -9.5224 H6            1 RES     
     820 H6         -13.1106    -6.3866   -11.5842 H6            1 RES     
     821 H6         -11.6883    -7.1896   -10.7393 H6            1 RES     
     822 H6         -11.9646    -8.0654   -12.8987 H6            1 RES     
     823 H6         -12.4754    -9.3783   -11.7833 H6            1 RES     
     824 H6         -14.3967    -7.3840   -13.1901 H6            1 RES     
     825 H6         -14.8871    -8.9021   -12.3679 H6            1 RES     
     826 H6         -13.1234    -8.5755   -14.9123 H6            1 RES     
     827 H6         -14.8731    -8.9852   -14.9080 H6            1 RES     
     828 H6         -13.4820   -10.9859   -15.2970 H6            1 RES     
     829 H6         -14.4390   -11.0858   -13.7797 H6            1 RES     
     830 H6         -12.6557   -10.7669   -13.7102 H6            1 RES     
     831 H6         -14.7152    -4.9715    -9.5465 H6            1 RES     
     832 H6         -13.8237    -4.5231    -8.0432 H6            1 RES     
     833 H6         -11.6924    -4.6437    -8.9360 H6            1 RES     
     834 H6         -12.1794    -4.9360   -10.5824 H6            1 RES     
     835 H6         -11.2725    -2.8564   -10.1002 H6            1 RES     
     836 H6         -12.6497    -2.2796    -9.1494 H6            1 RES     
     837 H6         -13.9924    -2.1107   -11.2681 H6            1 RES     
     838 H6         -12.8498    -3.2011   -12.1401 H6            1 RES     
     839 H6         -10.9896    -1.6736   -11.9587 H6            1 RES     
     840 H6         -11.9673    -0.4499   -11.0655 H6            1 RES     
     841 H6         -13.2995    -0.0053   -13.0983 H6            1 RES     
     842 H6         -12.4753    -1.3499   -13.9858 H6            1 RES     
     843 H6         -10.2680    -0.2466   -13.7468 H6            1 RES     
     844 H6         -11.0002     1.1063   -12.8073 H6            1 RES     
     845 H6         -12.3257     1.7928   -14.7967 H6            1 RES     
     846 H6         -11.6257     0.4166   -15.7508 H6            1 RES     
     847 H6         -10.5613     1.7412   -15.1538 H6            1 RES     
     848 C0         -10.5952   -14.5020     1.9336 C0            1 RES     
     849 C1         -11.1967   -13.9048     3.0061 C1            1 RES     
     850 C1         -12.5342   -14.0693     3.0307 C1            1 RES     
     851 C1         -12.9551   -14.7118     1.9863 C1            1 RES     
     852 C1         -11.8262   -15.0426     1.0993 C1            1 RES     
     853 C1         -12.3197   -14.1875    -0.0581 C1            1 RES     
     854 C1         -13.6299   -13.8059    -0.0358 C1            1 RES     
     855 S2         -14.5782   -14.5681     1.3245 S2            1 RES     
     856 C1         -14.2287   -12.7973    -1.0074 C1            1 RES     
     857 C1         -13.5550   -12.4400    -2.2124 C1            1 RES     
     858 N3         -14.0721   -11.5192    -3.0767 N3            1 RES     
     859 C1         -15.2358   -10.8710    -2.8462 C1            1 RES     
     860 C1         -15.9393   -11.1502    -1.6812 C1            1 RES     
     861 C1         -15.4422   -12.1213    -0.7596 C1            1 RES     
     862 N3         -16.2142   -12.2977     0.3497 N3            1 RES     
     863 S2         -17.4636   -11.2388     0.1007 S2            1 RES     
     864 N3         -17.1010   -10.5361    -1.3493 N3            1 RES     
     865 S2         -13.2925   -13.2361     4.2684 S2            1 RES     
     866 C1         -11.8257   -12.6183     4.8463 C1            1 RES     
     867 C1         -10.7710   -13.0378     4.0264 C1            1 RES     
     868 C0          -9.6085   -15.6219     2.5227 C0            1 RES     
     869 C0          -9.2003   -16.4062     3.8690 C0            1 RES     
     870 C0          -8.8914   -15.5220     5.1182 C0            1 RES     
     871 C0          -9.8099   -15.8861     6.3000 C0            1 RES     
     872 C0          -9.6950   -14.9350     7.5049 C0            1 RES     
     873 C0         -10.5695   -15.4619     8.6587 C0            1 RES     
     874 C0         -10.6756   -14.4761     9.8289 C0            1 RES     
     875 C0         -11.5247   -15.0689    10.9558 C0            1 RES     
     876 C0          -7.9140   -17.2554     3.4655 C0            1 RES     
     877 C0          -7.0810   -18.2004     4.3874 C0            1 RES     
     878 C0          -5.9913   -17.5487     5.2930 C0            1 RES     
     879 C0          -4.8120   -18.5320     5.5671 C0            1 RES     
     880 C0          -3.6553   -17.9035     6.3717 C0            1 RES     
     881 C0          -2.3031   -18.6492     6.2272 C0            1 RES     
     882 C0          -2.3091   -20.1245     6.6535 C0            1 RES     
     883 C0          -0.9091   -20.7359     6.5061 C0            1 RES     
     884 C0          -9.5716   -13.5389     1.1604 C0            1 RES     
     885 C0          -8.5077   -13.9544    -0.0152 C0            1 RES     
     886 C0          -7.4394   -15.0190     0.4606 C0            1 RES     
     887 C0          -6.2018   -15.2668    -0.3958 C0            1 RES     
     888 C0          -5.1420   -16.1946     0.2251 C0            1 RES     
     889 C0          -5.5722   -17.6760     0.2475 C0            1 RES     
     890 C0          -4.3693   -18.6295     0.3657 C0            1 RES     
     891 C0          -3.6394   -18.5365     1.6944 C0            1 RES     
     892 C0          -9.0223   -14.2023    -1.5059 C0            1 RES     
     893 C0          -7.9584   -13.7407    -2.5731 C0            1 RES     
     894 C0          -8.2233   -13.6961    -4.1033 C0            1 RES     
     895 C0          -7.9658   -14.9803    -4.9580 C0            1 RES     
     896 C0          -7.4614   -14.5438    -6.3688 C0            1 RES     
     897 C0          -7.1171   -15.6595    -7.3791 C0            1 RES     
     898 C0          -6.3983   -15.0347    -8.6013 C0            1 RES     
     899 C0          -6.0624   -16.0454    -9.6969 C0            1 RES     
     900 H4         -11.6537   -13.8284    -0.7982 H4            1 RES     
     901 H5         -12.6230   -12.9074    -2.4858 H5            1 RES     
     902 H4          -9.7595   -12.6925     4.1709 H4            1 RES     
     903 H6          -9.7283   -16.4441     1.7852 H6            1 RES     
     904 H6          -8.6490   -15.1460     2.4954 H6            1 RES     
     905 H6         -10.0120   -17.1233     4.1220 H6            1 RES     
     906 H6          -7.8415   -15.6210     5.4474 H6            1 RES     
     907 H6          -8.9552   -14.4692     4.8689 H6            1 RES     
     908 H6         -10.8681   -15.8572     5.9585 H6            1 RES     
     909 H6          -9.5625   -16.9236     6.6162 H6            1 RES     
     910 H6          -8.6416   -14.8543     7.8531 H6            1 RES     
     911 H6         -10.0455   -13.9268     7.1913 H6            1 RES     
     912 H6         -10.1382   -16.4229     9.0186 H6            1 RES     
     913 H6         -11.5985   -15.6534     8.2835 H6            1 RES     
     914 H6          -9.6675   -14.2324    10.2273 H6            1 RES     
     915 H6         -11.1577   -13.5389     9.4737 H6            1 RES     
     916 H6         -12.5390   -15.3313    10.5842 H6            1 RES     
     917 H6         -11.0422   -15.9847    11.3603 H6            1 RES     
     918 H6         -11.6317   -14.3323    11.7796 H6            1 RES     
     919 H6          -8.2714   -17.9156     2.6450 H6            1 RES     
     920 H6          -7.1532   -16.5773     3.0185 H6            1 RES     
     921 H6          -7.7033   -18.9367     4.9348 H6            1 RES     
     922 H6          -6.4941   -18.7815     3.6411 H6            1 RES     
     923 H6          -5.5417   -16.6909     4.7434 H6            1 RES     
     924 H6          -6.4315   -17.1740     6.2392 H6            1 RES     
     925 H6          -5.1606   -19.4600     6.0674 H6            1 RES     
     926 H6          -4.3908   -18.8155     4.5908 H6            1 RES     
     927 H6          -3.4599   -16.8801     5.9830 H6            1 RES     
     928 H6          -3.9511   -17.8142     7.4385 H6            1 RES     
     929 H6          -1.5478   -18.1054     6.8369 H6            1 RES     
     930 H6          -1.9783   -18.5953     5.1639 H6            1 RES     
     931 H6          -3.0101   -20.6973     6.0101 H6            1 RES     
     932 H6          -2.6291   -20.2134     7.7123 H6            1 RES     
     933 H6          -0.1819   -20.2078     7.1604 H6            1 RES     
     934 H6          -0.5565   -20.6676     5.4539 H6            1 RES     
     935 H6          -0.9281   -21.8072     6.7988 H6            1 RES     
     936 H6         -10.1641   -12.6829     0.7690 H6            1 RES     
     937 H6          -8.9209   -13.0848     1.9424 H6            1 RES     
     938 H6          -7.9511   -12.9960    -0.1000 H6            1 RES     
     939 H6          -7.9238   -16.0056     0.5874 H6            1 RES     
     940 H6          -7.0100   -14.6358     1.4110 H6            1 RES     
     941 H6          -6.4924   -15.7644    -1.3378 H6            1 RES     
     942 H6          -5.7203   -14.2809    -0.5733 H6            1 RES     
     943 H6          -4.2668   -16.1192    -0.4545 H6            1 RES     
     944 H6          -4.8233   -15.8423     1.2314 H6            1 RES     
     945 H6          -6.0389   -17.9214    -0.7300 H6            1 RES     
     946 H6          -6.3258   -17.8649     1.0407 H6            1 RES     
     947 H6          -3.6542   -18.4175    -0.4587 H6            1 RES     
     948 H6          -4.7284   -19.6745     0.2453 H6            1 RES     
     949 H6          -2.7802   -19.2412     1.6964 H6            1 RES     
     950 H6          -4.3421   -18.8343     2.4856 H6            1 RES     
     951 H6          -3.2562   -17.5130     1.8844 H6            1 RES     
     952 H6          -9.3845   -15.2444    -1.6456 H6            1 RES     
     953 H6          -9.8484   -13.5019    -1.7097 H6            1 RES     
     954 H6          -7.7673   -12.6805    -2.3002 H6            1 RES     
     955 H6          -6.9906   -14.2259    -2.5040 H6            1 RES     
     956 H6          -7.4193   -12.9954    -4.4229 H6            1 RES     
     957 H6          -9.1772   -13.1975    -4.3728 H6            1 RES     
     958 H6          -8.8790   -15.6125    -5.0041 H6            1 RES     
     959 H6          -7.1440   -15.5809    -4.5106 H6            1 RES     
     960 H6          -6.5186   -13.9753    -6.2010 H6            1 RES     
     961 H6          -8.2005   -13.8612    -6.8407 H6            1 RES     
     962 H6          -8.0493   -16.1734    -7.6985 H6            1 RES     
     963 H6          -6.4335   -16.4045    -6.9170 H6            1 RES     
     964 H6          -5.4445   -14.5713    -8.2614 H6            1 RES     
     965 H6          -7.0309   -14.2385    -9.0499 H6            1 RES     
     966 H6          -6.9908   -16.4848   -10.1169 H6            1 RES     
     967 H6          -5.4094   -16.8532    -9.3059 H6            1 RES     
     968 H6          -5.5200   -15.5267   -10.5194 H6            1 RES     
     969 C0         -10.0281    -5.4175    10.2966 C0            1 RES     
     970 C1         -11.3261    -4.9945    10.2253 C1            1 RES     
     971 C1         -12.2151    -5.9216    10.6338 C1            1 RES     
     972 C1         -11.6322    -7.0365    10.9462 C1            1 RES     
     973 C1         -10.1776    -6.9298    10.7376 C1            1 RES     
     974 C1         -10.1283    -7.9877     9.6455 C1            1 RES     
     975 C1         -11.1983    -8.8291     9.5451 C1            1 RES     
     976 S2         -12.4137    -8.6110    10.8888 S2            1 RES     
     977 C1         -11.3931    -9.8082     8.3947 C1            1 RES     
     978 C1         -10.3154   -10.1562     7.5280 C1            1 RES     
     979 N3         -10.4865   -11.0135     6.4802 N3            1 RES     
     980 C1         -11.6800   -11.5720     6.1782 C1            1 RES     
     981 C1         -12.7827   -11.2633     6.9648 C1            1 RES     
     982 C1         -12.6422   -10.3853     8.0824 C1            1 RES     
     983 N3         -13.7966   -10.1508     8.7680 N3            1 RES     
     984 S2         -14.9075   -11.0585     7.9395 S2            1 RES     
     985 N3         -14.0244   -11.7525     6.7286 N3            1 RES     
     986 S2         -13.8109    -5.4596    10.4308 S2            1 RES     
     987 C1         -13.3680    -3.9573     9.7871 C1            1 RES     
     988 C1         -11.9737    -3.8652     9.6969 C1            1 RES     
     989 C0          -9.2868    -4.4568    11.3463 C0            1 RES     
     990 C0          -9.5376    -3.3144    12.4538 C0            1 RES     
     991 C0         -10.4135    -2.1007    12.0096 C0            1 RES     
     992 C0         -11.6455    -1.9391    12.9201 C0            1 RES     
     993 C0         -12.6545    -0.8825    12.4351 C0            1 RES     
     994 C0         -13.7785    -0.7311    13.4778 C0            1 RES     
     995 C0         -14.9335     0.1525    12.9902 C0            1 RES     
     996 C0         -15.9990     0.2941    14.0796 C0            1 RES     
     997 C0          -8.0782    -2.8196    12.8589 C0            1 RES     
     998 C0          -7.7129    -1.7061    13.8901 C0            1 RES     
     999 C0          -7.7467    -0.2268    13.3973 C0            1 RES     
    1000 C0          -6.7281     0.6598    14.1777 C0            1 RES     
    1001 C0          -6.6448     2.1106    13.6594 C0            1 RES     
    1002 C0          -5.3364     2.8483    14.0456 C0            1 RES     
    1003 C0          -5.0579     2.9628    15.5514 C0            1 RES     
    1004 C0          -3.7638     3.7484    15.8040 C0            1 RES     
    1005 C0          -9.1941    -5.1404     8.9547 C0            1 RES     
    1006 C0          -7.5769    -5.2947     8.7373 C0            1 RES     
    1007 C0          -6.7294    -4.3514     9.6822 C0            1 RES     
    1008 C0          -5.2482    -4.1373     9.3875 C0            1 RES     
    1009 C0          -4.5461    -3.0793    10.2576 C0            1 RES     
    1010 C0          -4.3142    -3.5462    11.7097 C0            1 RES     
    1011 C0          -3.1946    -2.7506    12.4049 C0            1 RES     
    1012 C0          -3.5332    -1.2885    12.6384 C0            1 RES     
    1013 C0          -6.9313    -6.7428     8.5510 C0            1 RES     
    1014 C0          -5.7039    -6.7100     7.5629 C0            1 RES     
    1015 C0          -4.9674    -7.9771     7.0473 C0            1 RES     
    1016 C0          -3.7901    -8.5688     7.8897 C0            1 RES     
    1017 C0          -2.7338    -9.1703     6.9110 C0            1 RES     
    1018 C0          -1.4625    -9.7917     7.5289 C0            1 RES     
    1019 C0          -0.4414   -10.0871     6.4015 C0            1 RES     
    1020 C0           0.8375   -10.7620     6.8950 C0            1 RES     
    1021 H4          -9.3416    -8.0097     8.9377 H4            1 RES     
    1022 H5          -9.3242    -9.7657     7.6918 H5            1 RES     
    1023 H4         -11.4828    -3.0203     9.2405 H4            1 RES     
    1024 H6          -8.6153    -5.1678    11.8735 H6            1 RES     
    1025 H6          -8.7751    -3.7538    10.7205 H6            1 RES     
    1026 H6          -9.9955    -3.7848    13.3516 H6            1 RES     
    1027 H6          -9.8452    -1.1534    12.0184 H6            1 RES     
    1028 H6         -10.6935    -2.1903    10.9664 H6            1 RES     
    1029 H6         -12.1863    -2.9097    12.9731 H6            1 RES     
    1030 H6         -11.2839    -1.6731    13.9379 H6            1 RES     
    1031 H6         -12.1616     0.1032    12.2843 H6            1 RES     
    1032 H6         -13.0790    -1.2217    11.4644 H6            1 RES     
    1033 H6         -13.3434    -0.2973    14.4061 H6            1 RES     
    1034 H6         -14.1969    -1.7331    13.7169 H6            1 RES     
    1035 H6         -14.5631     1.1631    12.7148 H6            1 RES     
    1036 H6         -15.3982    -0.3160    12.0949 H6            1 RES     
    1037 H6         -16.3832    -0.7040    14.3825 H6            1 RES     
    1038 H6         -15.5721     0.8007    14.9719 H6            1 RES     
    1039 H6         -16.8503     0.8992    13.7030 H6            1 RES     
    1040 H6          -7.5816    -3.7335    13.2524 H6            1 RES     
    1041 H6          -7.5227    -2.5274    11.9399 H6            1 RES     
    1042 H6          -8.2117    -1.8384    14.8712 H6            1 RES     
    1043 H6          -6.6310    -1.9049    14.0608 H6            1 RES     
    1044 H6          -7.4120    -0.2000    12.3356 H6            1 RES     
    1045 H6          -8.7726     0.1899    13.4579 H6            1 RES     
    1046 H6          -6.9362     0.6590    15.2685 H6            1 RES     
    1047 H6          -5.7308     0.2200    14.0264 H6            1 RES     
    1048 H6          -6.6474     2.0970    12.5474 H6            1 RES     
    1049 H6          -7.5384     2.6771    13.9972 H6            1 RES     
    1050 H6          -5.3828     3.8724    13.6131 H6            1 RES     
    1051 H6          -4.4775     2.3223    13.5716 H6            1 RES     
    1052 H6          -4.9421     1.9487    15.9890 H6            1 RES     
    1053 H6          -5.8977     3.4847    16.0552 H6            1 RES     
    1054 H6          -3.8514     4.7828    15.4065 H6            1 RES     
    1055 H6          -2.8976     3.2513    15.3154 H6            1 RES     
    1056 H6          -3.5614     3.8094    16.8945 H6            1 RES     
    1057 H6          -9.6838    -5.7211     8.1424 H6            1 RES     
    1058 H6          -9.3861    -4.0771     8.6832 H6            1 RES     
    1059 H6          -7.4893    -4.8504     7.7221 H6            1 RES     
    1060 H6          -6.7818    -4.7193    10.7244 H6            1 RES     
    1061 H6          -7.1531    -3.3299     9.5749 H6            1 RES     
    1062 H6          -4.6904    -5.0712     9.5773 H6            1 RES     
    1063 H6          -5.1665    -3.8075     8.3292 H6            1 RES     
    1064 H6          -3.5458    -2.9492     9.7930 H6            1 RES     
    1065 H6          -5.0702    -2.0984    10.2185 H6            1 RES     
    1066 H6          -3.9507    -4.5954    11.6878 H6            1 RES     
    1067 H6          -5.2575    -3.5256    12.2952 H6            1 RES     
    1068 H6          -2.2677    -2.8170    11.7946 H6            1 RES     
    1069 H6          -2.9863    -3.2153    13.3929 H6            1 RES     
    1070 H6          -2.6742    -0.7819    13.1286 H6            1 RES     
    1071 H6          -4.3994    -1.2479    13.3141 H6            1 RES     
    1072 H6          -3.7593    -0.7602    11.6896 H6            1 RES     
    1073 H6          -6.7144    -7.2231     9.5303 H6            1 RES     
    1074 H6          -7.6419    -7.3708     7.9896 H6            1 RES     
    1075 H6          -6.1286    -6.2508     6.6443 H6            1 RES     
    1076 H6          -4.8910    -6.0530     7.8537 H6            1 RES     
    1077 H6          -4.4681    -7.5614     6.1432 H6            1 RES     
    1078 H6          -5.6527    -8.7654     6.6729 H6            1 RES     
    1079 H6          -4.1668    -9.3117     8.6259 H6            1 RES     
    1080 H6          -3.2686    -7.7577     8.4433 H6            1 RES     
    1081 H6          -2.3875    -8.3282     6.2697 H6            1 RES     
    1082 H6          -3.2127    -9.9313     6.2581 H6            1 RES     
    1083 H6          -1.7286   -10.7275     8.0661 H6            1 RES     
    1084 H6          -0.9934    -9.0838     8.2463 H6            1 RES     
    1085 H6          -0.1541    -9.1282     5.9138 H6            1 RES     
    1086 H6          -0.9021   -10.7439     5.6322 H6            1 RES     
    1087 H6           0.6083   -11.7575     7.3284 H6            1 RES     
    1088 H6           1.3520   -10.1337     7.6515 H6            1 RES     
    1089 H6           1.5294   -10.9081     6.0350 H6            1 RES     
    1090 C0         -18.1079     2.0680     4.6866 C0            1 RES     
    1091 C1         -19.1273     1.1737     4.5137 C1            1 RES     
    1092 C1         -19.6570     0.7342     5.6725 C1            1 RES     
    1093 C1         -19.0301     1.2196     6.6981 C1            1 RES     
    1094 C1         -17.9251     2.0893     6.2582 C1            1 RES     
    1095 C1         -16.8311     1.2131     6.8496 C1            1 RES     
    1096 C1         -17.2070     0.2970     7.7890 C1            1 RES     
    1097 S2         -18.9604     0.4416     8.2738 S2            1 RES     
    1098 C1         -16.2769    -0.7795     8.3332 C1            1 RES     
    1099 C1         -14.8643    -0.6958     8.1568 C1            1 RES     
    1100 N3         -14.0255    -1.6676     8.6196 N3            1 RES     
    1101 C1         -14.4684    -2.7771     9.2522 C1            1 RES     
    1102 C1         -15.8350    -2.9400     9.4421 C1            1 RES     
    1103 C1         -16.7456    -1.9371     8.9898 C1            1 RES     
    1104 N3         -18.0589    -2.2169     9.2230 N3            1 RES     
    1105 S2         -17.9927    -3.6880     9.9818 S2            1 RES     
    1106 N3         -16.3774    -4.0272    10.0425 N3            1 RES     
    1107 S2         -20.8181    -0.4548     5.4740 S2            1 RES     
    1108 C1         -20.6679    -0.4189     3.7877 C1            1 RES     
    1109 C1         -19.6723     0.4915     3.4130 C1            1 RES     
    1110 C0         -18.5876     3.4480     4.0234 C0            1 RES     
    1111 C0         -19.8630     4.2066     3.3967 C0            1 RES     
    1112 C0         -20.6503     3.4373     2.2895 C0            1 RES     
    1113 C0         -22.1289     3.2549     2.6813 C0            1 RES     
    1114 C0         -22.9263     2.3450     1.7296 C0            1 RES     
    1115 C0         -24.4067     2.3300     2.1558 C0            1 RES     
    1116 C0         -25.2407     1.2956     1.3896 C0            1 RES     
    1117 C0         -26.7053     1.3531     1.8300 C0            1 RES     
    1118 C0         -19.2740     5.5652     2.8086 C0            1 RES     
    1119 C0         -20.0614     6.6914     2.0681 C0            1 RES     
    1120 C0         -20.3284     6.5025     0.5432 C0            1 RES     
    1121 C0         -20.4219     7.8730    -0.1955 C0            1 RES     
    1122 C0         -20.5810     7.7433    -1.7246 C0            1 RES     
    1123 C0         -20.1754     9.0146    -2.5150 C0            1 RES     
    1124 C0         -20.9460    10.2937    -2.1567 C0            1 RES     
    1125 C0         -20.4862    11.4659    -3.0343 C0            1 RES     
    1126 C0         -16.8048     1.7233     3.8171 C0            1 RES     
    1127 C0         -15.4846     2.6663     3.5844 C0            1 RES     
    1128 C0         -15.8194     4.0428     2.8815 C0            1 RES     
    1129 C0         -14.6827     4.8830     2.3083 C0            1 RES     
    1130 C0         -15.1155     6.1202     1.5013 C0            1 RES     
    1131 C0         -15.6714     7.2559     2.3852 C0            1 RES     
    1132 C0         -15.6085     8.6241     1.6824 C0            1 RES     
    1133 C0         -16.5275     8.7397     0.4786 C0            1 RES     
    1134 C0         -14.3853     2.7981     4.7344 C0            1 RES     
    1135 C0         -12.9340     2.9465     4.1380 C0            1 RES     
    1136 C0         -11.6361     2.9293     4.9917 C0            1 RES     
    1137 C0         -11.1115     4.2683     5.6063 C0            1 RES     
    1138 C0          -9.5518     4.2256     5.6291 C0            1 RES     
    1139 C0          -8.8130     5.4660     6.1768 C0            1 RES     
    1140 C0          -7.2995     5.3314     5.8733 C0            1 RES     
    1141 C0          -6.4594     6.4818     6.4262 C0            1 RES     
    1142 H4         -15.8394     1.2497     6.4814 H4            1 RES     
    1143 H5         -14.4161     0.1544     7.6691 H5            1 RES     
    1144 H4         -19.3611     0.6115     2.3874 H4            1 RES     
    1145 H6         -18.1793     4.1982     4.7339 H6            1 RES     
    1146 H6         -18.1057     3.4440     3.0666 H6            1 RES     
    1147 H6         -20.5598     4.4707     4.2224 H6            1 RES     
    1148 H6         -20.6079     3.9549     1.3145 H6            1 RES     
    1149 H6         -20.1735     2.4898     2.0670 H6            1 RES     
    1150 H6         -22.1814     2.7974     3.6938 H6            1 RES     
    1151 H6         -22.5982     4.2628     2.7175 H6            1 RES     
    1152 H6         -22.8529     2.7016     0.6785 H6            1 RES     
    1153 H6         -22.5028     1.3179     1.7885 H6            1 RES     
    1154 H6         -24.8316     3.3460     1.9931 H6            1 RES     
    1155 H6         -24.4762     2.0856     3.2383 H6            1 RES     
    1156 H6         -25.1857     1.4820     0.2957 H6            1 RES     
    1157 H6         -24.8439     0.2784     1.6010 H6            1 RES     
    1158 H6         -26.7914     1.1783     2.9244 H6            1 RES     
    1159 H6         -27.1407     2.3469     1.5895 H6            1 RES     
    1160 H6         -27.2925     0.5727     1.3019 H6            1 RES     
    1161 H6         -18.8312     6.0740     3.6928 H6            1 RES     
    1162 H6         -18.4303     5.3311     2.1217 H6            1 RES     
    1163 H6         -20.9625     7.0289     2.6185 H6            1 RES     
    1164 H6         -19.3367     7.5355     2.1087 H6            1 RES     
    1165 H6         -19.4536     5.9811     0.0930 H6            1 RES     
    1166 H6         -21.2361     5.8892     0.3707 H6            1 RES     
    1167 H6         -21.2357     8.5060     0.2172 H6            1 RES     
    1168 H6         -19.4702     8.3991    -0.0274 H6            1 RES     
    1169 H6         -19.8962     6.9479    -2.0922 H6            1 RES     
    1170 H6         -21.6214     7.4376    -1.9648 H6            1 RES     
    1171 H6         -20.3204     8.8029    -3.5976 H6            1 RES     
    1172 H6         -19.0907     9.2045    -2.3523 H6            1 RES     
    1173 H6         -20.7594    10.5581    -1.0944 H6            1 RES     
    1174 H6         -22.0341    10.1377    -2.3089 H6            1 RES     
    1175 H6         -20.6852    11.2519    -4.1068 H6            1 RES     
    1176 H6         -19.3982    11.6540    -2.9045 H6            1 RES     
    1177 H6         -21.0357    12.3899    -2.7548 H6            1 RES     
    1178 H6         -16.4350     0.7338     4.1648 H6            1 RES     
    1179 H6         -17.1646     1.5306     2.7805 H6            1 RES     
    1180 H6         -14.9649     2.0596     2.8114 H6            1 RES     
    1181 H6         -16.3592     4.7027     3.5869 H6            1 RES     
    1182 H6         -16.4264     3.8017     1.9826 H6            1 RES     
    1183 H6         -14.0648     5.2865     3.1298 H6            1 RES     
    1184 H6         -14.0985     4.2271     1.6271 H6            1 RES     
    1185 H6         -14.1797     6.4966     1.0366 H6            1 RES     
    1186 H6         -15.8194     5.8532     0.6818 H6            1 RES     
    1187 H6         -15.0171     7.3600     3.2766 H6            1 RES     
    1188 H6         -16.6970     7.0238     2.7419 H6            1 RES     
    1189 H6         -14.5622     8.8215     1.3625 H6            1 RES     
    1190 H6         -15.8972     9.4133     2.4099 H6            1 RES     
    1191 H6         -16.4145     9.7457     0.0202 H6            1 RES     
    1192 H6         -17.5619     8.6276     0.8334 H6            1 RES     
    1193 H6         -16.2986     7.9741    -0.2907 H6            1 RES     
    1194 H6         -14.6569     3.5851     5.4717 H6            1 RES     
    1195 H6         -14.3061     1.8288     5.2527 H6            1 RES     
    1196 H6         -12.8370     2.0566     3.4795 H6            1 RES     
    1197 H6         -12.7865     3.7974     3.4814 H6            1 RES     
    1198 H6         -10.8862     2.6824     4.2067 H6            1 RES     
    1199 H6         -11.5948     2.0905     5.7170 H6            1 RES     
    1200 H6         -11.5521     4.4392     6.6125 H6            1 RES     
    1201 H6         -11.3856     5.1244     4.9519 H6            1 RES     
    1202 H6          -9.2271     4.1137     4.5697 H6            1 RES     
    1203 H6          -9.2056     3.3345     6.1956 H6            1 RES     
    1204 H6          -8.9831     5.5474     7.2721 H6            1 RES     
    1205 H6          -9.1860     6.3896     5.6832 H6            1 RES     
    1206 H6          -7.1534     5.3028     4.7698 H6            1 RES     
    1207 H6          -6.9076     4.3831     6.3005 H6            1 RES     
    1208 H6          -6.5182     6.5073     7.5341 H6            1 RES     
    1209 H6          -6.7952     7.4547     6.0109 H6            1 RES     
    1210 H6          -5.3949     6.3290     6.1378 H6            1 RES     
    1211 C0         -23.0755    -6.5703    -2.6272 C0            1 RES     
    1212 C1         -23.3520    -7.5097    -1.6733 C1            1 RES     
    1213 C1         -24.2705    -7.1055    -0.7735 C1            1 RES     
    1214 C1         -24.6400    -5.8812    -0.9860 C1            1 RES     
    1215 C1         -23.9189    -5.3222    -2.1429 C1            1 RES     
    1216 C1         -23.1939    -4.2551    -1.3366 C1            1 RES     
    1217 C1         -23.6945    -3.9607    -0.1014 C1            1 RES     
    1218 S2         -25.2703    -4.8085     0.2570 S2            1 RES     
    1219 C1         -22.9813    -3.0656     0.9035 C1            1 RES     
    1220 C1         -21.9169    -2.2048     0.5036 C1            1 RES     
    1221 N3         -21.2560    -1.4176     1.4013 N3            1 RES     
    1222 C1         -21.5442    -1.4121     2.7220 C1            1 RES     
    1223 C1         -22.5555    -2.2413     3.1909 C1            1 RES     
    1224 C1         -23.2844    -3.0667     2.2815 C1            1 RES     
    1225 N3         -24.2419    -3.8430     2.8630 N3            1 RES     
    1226 S2         -24.1183    -3.4412     4.4655 S2            1 RES     
    1227 N3         -22.9017    -2.3247     4.4986 N3            1 RES     
    1228 S2         -24.5217    -8.1979     0.4694 S2            1 RES     
    1229 C1         -23.3964    -9.2905    -0.1688 C1            1 RES     
    1230 C1         -22.8067    -8.7555    -1.3205 C1            1 RES     
    1231 C0         -23.5130    -7.2010    -4.0362 C0            1 RES     
    1232 C0         -24.2998    -8.4332    -4.7124 C0            1 RES     
    1233 C0         -23.8877    -9.8620    -4.2366 C0            1 RES     
    1234 C0         -25.0937   -10.6272    -3.6598 C0            1 RES     
    1235 C0         -24.7320   -11.9698    -2.9994 C0            1 RES     
    1236 C0         -26.0223   -12.6909    -2.5647 C0            1 RES     
    1237 C0         -25.7540   -13.9422    -1.7193 C0            1 RES     
    1238 C0         -27.0686   -14.6331    -1.3495 C0            1 RES     
    1239 C0         -24.0287    -8.2749    -6.2745 C0            1 RES     
    1240 C0         -24.5403    -9.2050    -7.4190 C0            1 RES     
    1241 C0         -23.7226   -10.4990    -7.7174 C0            1 RES     
    1242 C0         -23.8405   -10.9179    -9.2152 C0            1 RES     
    1243 C0         -22.9665   -12.1329    -9.5895 C0            1 RES     
    1244 C0         -22.6674   -12.2563   -11.1063 C0            1 RES     
    1245 C0         -23.8971   -12.3732   -12.0186 C0            1 RES     
    1246 C0         -23.4702   -12.5336   -13.4841 C0            1 RES     
    1247 C0         -21.5047    -6.3325    -2.8494 C0            1 RES     
    1248 C0         -20.7873    -5.4680    -4.0429 C0            1 RES     
    1249 C0         -21.0981    -6.0274    -5.4891 C0            1 RES     
    1250 C0         -20.2622    -5.5450    -6.6703 C0            1 RES     
    1251 C0         -20.5261    -6.2637    -8.0057 C0            1 RES     
    1252 C0         -21.8752    -5.8758    -8.6459 C0            1 RES     
    1253 C0         -21.9049    -6.1615   -10.1583 C0            1 RES     
    1254 C0         -21.8518    -7.6390   -10.5061 C0            1 RES     
    1255 C0         -20.7727    -3.8732    -3.9749 C0            1 RES     
    1256 C0         -19.4477    -3.2768    -4.5853 C0            1 RES     
    1257 C0         -19.0577    -1.7744    -4.5183 C0            1 RES     
    1258 C0         -19.5616    -0.8066    -5.6387 C0            1 RES     
    1259 C0         -18.4699     0.2818    -5.8813 C0            1 RES     
    1260 C0         -18.7467     1.3376    -6.9735 C0            1 RES     
    1261 C0         -17.4535     2.1501    -7.2347 C0            1 RES     
    1262 C0         -17.6296     3.2683    -8.2610 C0            1 RES     
    1263 H4         -22.2887    -3.8277    -1.6806 H4            1 RES     
    1264 H5         -21.6182    -2.1360    -0.5297 H5            1 RES     
    1265 H4         -22.0047    -9.2558    -1.8399 H4            1 RES     
    1266 H6         -23.9399    -6.3190    -4.5598 H6            1 RES     
    1267 H6         -22.5883    -7.5500    -4.4495 H6            1 RES     
    1268 H6         -25.3903    -8.2935    -4.5436 H6            1 RES     
    1269 H6         -23.4512   -10.4621    -5.0549 H6            1 RES     
    1270 H6         -23.0687    -9.8098    -3.5287 H6            1 RES     
    1271 H6         -25.5824    -9.9998    -2.8821 H6            1 RES     
    1272 H6         -25.8155   -10.7993    -4.4886 H6            1 RES     
    1273 H6         -24.1680   -12.6229    -3.7012 H6            1 RES     
    1274 H6         -24.0936   -11.7640    -2.1119 H6            1 RES     
    1275 H6         -26.5941   -12.9729    -3.4772 H6            1 RES     
    1276 H6         -26.6443   -11.9986    -1.9562 H6            1 RES     
    1277 H6         -25.1138   -14.6598    -2.2757 H6            1 RES     
    1278 H6         -25.2312   -13.6450    -0.7837 H6            1 RES     
    1279 H6         -27.7351   -13.9351    -0.7978 H6            1 RES     
    1280 H6         -27.5919   -14.9805    -2.2662 H6            1 RES     
    1281 H6         -26.8674   -15.5125    -0.7023 H6            1 RES     
    1282 H6         -24.4489    -7.2756    -6.5227 H6            1 RES     
    1283 H6         -22.9318    -8.2105    -6.4508 H6            1 RES     
    1284 H6         -25.6319    -9.3932    -7.3740 H6            1 RES     
    1285 H6         -24.3700    -8.5697    -8.3171 H6            1 RES     
    1286 H6         -22.6430   -10.2807    -7.5537 H6            1 RES     
    1287 H6         -24.0249   -11.3257    -7.0429 H6            1 RES     
    1288 H6         -24.8955   -11.1068    -9.5057 H6            1 RES     
    1289 H6         -23.4724   -10.0748    -9.8190 H6            1 RES     
    1290 H6         -21.9693   -12.0213    -9.1100 H6            1 RES     
    1291 H6         -23.4335   -13.0610    -9.1969 H6            1 RES     
    1292 H6         -22.0270   -13.1539   -11.2550 H6            1 RES     
    1293 H6         -22.0792   -11.3673   -11.4270 H6            1 RES     
    1294 H6         -24.5154   -11.4547   -11.9332 H6            1 RES     
    1295 H6         -24.5066   -13.2528   -11.7249 H6            1 RES     
    1296 H6         -22.8729   -13.4616   -13.6171 H6            1 RES     
    1297 H6         -22.8588   -11.6660   -13.8151 H6            1 RES     
    1298 H6         -24.3662   -12.5984   -14.1374 H6            1 RES     
    1299 H6         -21.0946    -5.9534    -1.8877 H6            1 RES     
    1300 H6         -21.0498    -7.3434    -2.9599 H6            1 RES     
    1301 H6         -19.7267    -5.7356    -3.8452 H6            1 RES     
    1302 H6         -22.1509    -5.8152    -5.7552 H6            1 RES     
    1303 H6         -20.8823    -7.1170    -5.4620 H6            1 RES     
    1304 H6         -20.4828    -4.4826    -6.8755 H6            1 RES     
    1305 H6         -19.1945    -5.7088    -6.4079 H6            1 RES     
    1306 H6         -19.7261    -5.9010    -8.6853 H6            1 RES     
    1307 H6         -20.4172    -7.3670    -7.9095 H6            1 RES     
    1308 H6         -22.0028    -4.7761    -8.5582 H6            1 RES     
    1309 H6         -22.7249    -6.3594    -8.1195 H6            1 RES     
    1310 H6         -21.0505    -5.6418   -10.6440 H6            1 RES     
    1311 H6         -22.8437    -5.7439   -10.5825 H6            1 RES     
    1312 H6         -21.8628    -7.7613   -11.6106 H6            1 RES     
    1313 H6         -22.7508    -8.1150   -10.0893 H6            1 RES     
    1314 H6         -20.9381    -8.1247   -10.1068 H6            1 RES     
    1315 H6         -21.7046    -3.4372    -4.3969 H6            1 RES     
    1316 H6         -20.6776    -3.5709    -2.9194 H6            1 RES     
    1317 H6         -18.6481    -3.7903    -4.0090 H6            1 RES     
    1318 H6         -19.2559    -3.5358    -5.6212 H6            1 RES     
    1319 H6         -17.9614    -1.8464    -4.6990 H6            1 RES     
    1320 H6         -19.1641    -1.3345    -3.5052 H6            1 RES     
    1321 H6         -20.5493    -0.3730    -5.3698 H6            1 RES     
    1322 H6         -19.6677    -1.3546    -6.6003 H6            1 RES     
    1323 H6         -17.5524    -0.2624    -6.2012 H6            1 RES     
    1324 H6         -18.2466     0.8126    -4.9310 H6            1 RES     
    1325 H6         -19.5670     2.0102    -6.6420 H6            1 RES     
    1326 H6         -19.0454     0.8441    -7.9239 H6            1 RES     
    1327 H6         -16.6644     1.4616    -7.6132 H6            1 RES     
    1328 H6         -17.0918     2.6061    -6.2878 H6            1 RES     
    1329 H6         -18.3591     4.0199    -7.8944 H6            1 RES     
    1330 H6         -17.9684     2.8625    -9.2368 H6            1 RES     
    1331 H6         -16.6526     3.7792    -8.4168 H6            1 RES     
    1332 C0         -18.8783   -16.2926     3.7484 C0            1 RES     
    1333 C1         -19.3098   -15.9221     4.9915 C1            1 RES     
    1334 C1         -20.6523   -15.8651     5.0978 C1            1 RES     
    1335 C1         -21.2317   -16.1183     3.9661 C1            1 RES     
    1336 C1         -20.2248   -16.3739     2.9213 C1            1 RES     
    1337 C1         -20.6058   -15.1652     2.0798 C1            1 RES     
    1338 C1         -21.8214   -14.5946     2.3244 C1            1 RES     
    1339 S2         -22.8296   -15.5341     3.5207 S2            1 RES     
    1340 C1         -22.2690   -13.2741     1.7114 C1            1 RES     
    1341 C1         -21.5975   -12.7157     0.5840 C1            1 RES     
    1342 N3         -21.9762   -11.5213     0.0435 N3            1 RES     
    1343 C1         -22.9893   -10.7792     0.5440 C1            1 RES     
    1344 C1         -23.6775   -11.2477     1.6561 C1            1 RES     
    1345 C1         -23.3251   -12.5023     2.2405 C1            1 RES     
    1346 N3         -24.0644   -12.8469     3.3324 N3            1 RES     
    1347 S2         -25.1084   -11.5701     3.4879 S2            1 RES     
    1348 N3         -24.6903   -10.5661     2.2449 N3            1 RES     
    1349 S2         -21.1868   -15.2905     6.5761 S2            1 RES     
    1350 C1         -19.6065   -15.1045     7.1549 C1            1 RES     
    1351 C1         -18.6856   -15.4503     6.1584 C1            1 RES     
    1352 C0         -18.0878   -17.6773     3.9283 C0            1 RES     
    1353 C0         -17.7688   -18.8568     4.9779 C0            1 RES     
    1354 C0         -17.2456   -18.4122     6.3802 C0            1 RES     
    1355 C0         -18.1597   -18.9305     7.5065 C0            1 RES     
    1356 C0         -17.8167   -18.3787     8.9020 C0            1 RES     
    1357 C0         -18.7189   -19.0508     9.9545 C0            1 RES     
    1358 C0         -18.5882   -18.4202    11.3466 C0            1 RES     
    1359 C0         -19.4788   -19.1515    12.3537 C0            1 RES     
    1360 C0         -16.6802   -19.7620     4.2470 C0            1 RES     
    1361 C0         -15.9932   -21.0470     4.8070 C0            1 RES     
    1362 C0         -14.7617   -20.8568     5.7448 C0            1 RES     
    1363 C0         -13.7715   -22.0573     5.6398 C0            1 RES     
    1364 C0         -12.4833   -21.8724     6.4684 C0            1 RES     
    1365 C0         -11.2990   -22.7614     6.0073 C0            1 RES     
    1366 C0         -11.5560   -24.2752     6.0312 C0            1 RES     
    1367 C0         -10.3003   -25.0440     5.5980 C0            1 RES     
    1368 C0         -17.7322   -15.3360     3.1615 C0            1 RES     
    1369 C0         -16.8180   -15.5820     1.8235 C0            1 RES     
    1370 C0         -15.9424   -16.8966     1.9014 C0            1 RES     
    1371 C0         -14.8122   -17.0999     0.8975 C0            1 RES     
    1372 C0         -13.9131   -18.3232     1.1514 C0            1 RES     
    1373 C0         -14.6064   -19.6625     0.8256 C0            1 RES     
    1374 C0         -13.5948   -20.7958     0.5765 C0            1 RES     
    1375 C0         -12.7996   -21.1920     1.8085 C0            1 RES     
    1376 C0         -17.4376   -15.3236     0.3751 C0            1 RES     
    1377 C0         -16.3574   -14.7682    -0.6293 C0            1 RES     
    1378 C0         -16.6799   -14.2628    -2.0625 C0            1 RES     
    1379 C0         -16.7022   -15.2875    -3.2438 C0            1 RES     
    1380 C0         -16.1920   -14.5698    -4.5321 C0            1 RES     
    1381 C0         -16.1052   -15.4064    -5.8270 C0            1 RES     
    1382 C0         -15.3411   -14.5972    -6.9050 C0            1 RES     
    1383 C0         -15.2474   -15.3096    -8.2535 C0            1 RES     
    1384 H4         -19.9201   -14.7313     1.4002 H4            1 RES     
    1385 H5         -20.7808   -13.2366     0.1114 H5            1 RES     
    1386 H4         -17.6225   -15.3289     6.2924 H4            1 RES     
    1387 H6         -18.3904   -18.2345     3.0160 H6            1 RES     
    1388 H6         -17.0596   -17.3765     3.9365 H6            1 RES     
    1389 H6         -18.6857   -19.4723     5.1096 H6            1 RES     
    1390 H6         -16.2176   -18.7687     6.5718 H6            1 RES     
    1391 H6         -17.1265   -17.3358     6.4223 H6            1 RES     
    1392 H6         -19.2093   -18.6357     7.2856 H6            1 RES     
    1393 H6         -18.0926   -20.0409     7.5154 H6            1 RES     
    1394 H6         -16.7515   -18.5707     9.1585 H6            1 RES     
    1395 H6         -17.9904   -17.2799     8.8976 H6            1 RES     
    1396 H6         -18.4552   -20.1309    10.0082 H6            1 RES     
    1397 H6         -19.7818   -18.9603     9.6408 H6            1 RES     
    1398 H6         -17.5352   -18.4641    11.6982 H6            1 RES     
    1399 H6         -18.9060   -17.3556    11.2961 H6            1 RES     
    1400 H6         -20.5400   -19.1317    12.0235 H6            1 RES     
    1401 H6         -19.1544   -20.2094    12.4572 H6            1 RES     
    1402 H6         -19.4106   -18.6620    13.3479 H6            1 RES     
    1403 H6         -17.1901   -20.1038     3.3197 H6            1 RES     
    1404 H6         -15.8293   -19.1217     3.9236 H6            1 RES     
    1405 H6         -16.7141   -21.7926     5.1986 H6            1 RES     
    1406 H6         -15.5579   -21.4893     3.8828 H6            1 RES     
    1407 H6         -14.1882   -19.9671     5.3992 H6            1 RES     
    1408 H6         -15.0816   -20.6889     6.7933 H6            1 RES     
    1409 H6         -14.2610   -23.0166     5.9104 H6            1 RES     
    1410 H6         -13.4551   -22.1273     4.5883 H6            1 RES     
    1411 H6         -12.1216   -20.8281     6.3445 H6            1 RES     
    1412 H6         -12.7081   -22.0317     7.5444 H6            1 RES     
    1413 H6         -10.4295   -22.5373     6.6642 H6            1 RES     
    1414 H6         -11.0192   -22.4720     4.9695 H6            1 RES     
    1415 H6         -12.3791   -24.5264     5.3292 H6            1 RES     
    1416 H6         -11.8377   -24.5973     7.0551 H6            1 RES     
    1417 H6          -9.4592   -24.8424     6.2962 H6            1 RES     
    1418 H6          -9.9901   -24.7486     4.5720 H6            1 RES     
    1419 H6         -10.5021   -26.1362     5.6005 H6            1 RES     
    1420 H6         -18.1749   -14.3204     3.0653 H6            1 RES     
    1421 H6         -16.9738   -15.2271     3.9703 H6            1 RES     
    1422 H6         -16.0994   -14.7420     1.9406 H6            1 RES     
    1423 H6         -16.5933   -17.7868     1.8105 H6            1 RES     
    1424 H6         -15.4066   -16.8648     2.8742 H6            1 RES     
    1425 H6         -15.2323   -17.2653    -0.1102 H6            1 RES     
    1426 H6         -14.1666   -16.1960     0.9398 H6            1 RES     
    1427 H6         -13.0712   -18.2091     0.4361 H6            1 RES     
    1428 H6         -13.4891   -18.3178     2.1803 H6            1 RES     
    1429 H6         -15.1548   -19.5503    -0.1336 H6            1 RES     
    1430 H6         -15.3445   -19.9352     1.6091 H6            1 RES     
    1431 H6         -12.8917   -20.4863    -0.2271 H6            1 RES     
    1432 H6         -14.1447   -21.6940     0.2211 H6            1 RES     
    1433 H6         -12.0852   -22.0014     1.5452 H6            1 RES     
    1434 H6         -13.5078   -21.5758     2.5566 H6            1 RES     
    1435 H6         -12.2268   -20.3372     2.2228 H6            1 RES     
    1436 H6         -17.9909   -16.2132     0.0022 H6            1 RES     
    1437 H6         -18.1296   -14.4684     0.4404 H6            1 RES     
    1438 H6         -15.9626   -13.8699    -0.1076 H6            1 RES     
    1439 H6         -15.4930   -15.4058    -0.7809 H6            1 RES     
    1440 H6         -15.7767   -13.6432    -2.2617 H6            1 RES     
    1441 H6         -17.5376   -13.5598    -2.1011 H6            1 RES     
    1442 H6         -17.7171   -15.7240    -3.3677 H6            1 RES     
    1443 H6         -15.9849   -16.1142    -3.0485 H6            1 RES     
    1444 H6         -15.1541   -14.2320    -4.3108 H6            1 RES     
    1445 H6         -16.8142   -13.6722    -4.7372 H6            1 RES     
    1446 H6         -17.1297   -15.6527    -6.1806 H6            1 RES     
    1447 H6         -15.5494   -16.3513    -5.6423 H6            1 RES     
    1448 H6         -14.3038   -14.4080    -6.5470 H6            1 RES     
    1449 H6         -15.8369   -13.6159    -7.0681 H6            1 RES     
    1450 H6         -16.2590   -15.4583    -8.6847 H6            1 RES     
    1451 H6         -14.7364   -16.2894    -8.1508 H6            1 RES     
    1452 H6         -14.6575   -14.6816    -8.9588 H6            1 RES     
    1453 C0         -16.2684   -10.0715    14.1057 C0            1 RES     
    1454 C1         -17.4686    -9.4379    14.2701 C1            1 RES     
    1455 C1         -18.4928   -10.2824    14.5034 C1            1 RES     
    1456 C1         -18.1106   -11.5203    14.4569 C1            1 RES     
    1457 C1         -16.6724   -11.6008    14.1476 C1            1 RES     
    1458 C1         -16.8685   -12.3118    12.8171 C1            1 RES     
    1459 C1         -18.0782   -12.9058    12.6011 C1            1 RES     
    1460 S2         -19.1696   -12.8681    14.0632 S2            1 RES     
    1461 C1         -18.5022   -13.4861    11.2582 C1            1 RES     
    1462 C1         -17.5479   -13.7550    10.2332 C1            1 RES     
    1463 N3         -17.9216   -14.2519     9.0184 N3            1 RES     
    1464 C1         -19.2099   -14.5023     8.6944 C1            1 RES     
    1465 C1         -20.1998   -14.2445     9.6345 C1            1 RES     
    1466 C1         -19.8491   -13.7421    10.9246 C1            1 RES     
    1467 N3         -20.9079   -13.5184    11.7531 N3            1 RES     
    1468 S2         -22.2036   -13.9689    10.8242 S2            1 RES     
    1469 N3         -21.5197   -14.4394     9.3964 N3            1 RES     
    1470 S2         -19.9844    -9.5270    14.5795 S2            1 RES     
    1471 C1         -19.3034    -7.9998    14.3127 C1            1 RES     
    1472 C1         -17.9216    -8.1166    14.1190 C1            1 RES     
    1473 C0         -15.3157    -9.5708    15.2958 C0            1 RES     
    1474 C0         -15.3012    -8.7508    16.6822 C0            1 RES     
    1475 C0         -15.9591    -7.3351    16.6555 C0            1 RES     
    1476 C0         -17.0972    -7.2295    17.6882 C0            1 RES     
    1477 C0         -17.9163    -5.9297    17.5939 C0            1 RES     
    1478 C0         -18.9441    -5.8876    18.7408 C0            1 RES     
    1479 C0         -19.9386    -4.7269    18.6123 C0            1 RES     
    1480 C0         -20.9086    -4.7166    19.7960 C0            1 RES     
    1481 C0         -13.7587    -8.6327    17.0635 C0            1 RES     
    1482 C0         -13.1480    -7.9205    18.3111 C0            1 RES     
    1483 C0         -12.9325    -6.3781    18.2281 C0            1 RES     
    1484 C0         -11.7336    -5.9193    19.1140 C0            1 RES     
    1485 C0         -11.4095    -4.4162    18.9880 C0            1 RES     
    1486 C0          -9.9715    -4.0379    19.4290 C0            1 RES     
    1487 C0          -9.6075    -4.3881    20.8792 C0            1 RES     
    1488 C0          -8.1809    -3.9255    21.2057 C0            1 RES     
    1489 C0         -15.4605    -9.5778    12.8109 C0            1 RES     
    1490 C0         -13.9108    -9.9300    12.4096 C0            1 RES     
    1491 C0         -12.8620    -9.4344    13.4844 C0            1 RES     
    1492 C0         -11.3819    -9.3940    13.1180 C0            1 RES     
    1493 C0         -10.4581    -8.7454    14.1647 C0            1 RES     
    1494 C0         -10.2491    -9.6241    15.4155 C0            1 RES     
    1495 C0          -8.9716    -9.2448    16.1861 C0            1 RES     
    1496 C0          -9.0250    -7.8678    16.8250 C0            1 RES     
    1497 C0         -13.5513   -11.3570    11.7909 C0            1 RES     
    1498 C0         -12.3856   -11.2565    10.7350 C0            1 RES     
    1499 C0         -11.9188   -12.4366     9.8388 C0            1 RES     
    1500 C0         -10.8324   -13.4216    10.3823 C0            1 RES     
    1501 C0          -9.9508   -13.8966     9.1855 C0            1 RES     
    1502 C0          -8.7880   -14.8636     9.4968 C0            1 RES     
    1503 C0          -7.8916   -15.0020     8.2405 C0            1 RES     
    1504 C0          -6.7369   -15.9868     8.4176 C0            1 RES     
    1505 H4         -16.1327   -12.2677    12.0575 H4            1 RES     
    1506 H5         -16.4954   -13.5927    10.3995 H5            1 RES     
    1507 H4         -17.3056    -7.2716    13.8556 H4            1 RES     
    1508 H6         -14.7625   -10.4993    15.5529 H6            1 RES     
    1509 H6         -14.7131    -8.8171    14.8305 H6            1 RES     
    1510 H6         -15.7957    -9.3676    17.4645 H6            1 RES     
    1511 H6         -15.2268    -6.5333    16.8585 H6            1 RES     
    1512 H6         -16.2986    -7.0880    15.6564 H6            1 RES     
    1513 H6         -17.8038    -8.0749    17.5361 H6            1 RES     
    1514 H6         -16.6462    -7.3160    18.7015 H6            1 RES     
    1515 H6         -17.2584    -5.0353    17.6606 H6            1 RES     
    1516 H6         -18.4402    -5.9151    16.6126 H6            1 RES     
    1517 H6         -18.3944    -5.8026    19.7050 H6            1 RES     
    1518 H6         -19.5279    -6.8339    18.7476 H6            1 RES     
    1519 H6         -19.4021    -3.7546    18.5774 H6            1 RES     
    1520 H6         -20.5222    -4.8490    17.6734 H6            1 RES     
    1521 H6         -21.4551    -5.6823    19.8619 H6            1 RES     
    1522 H6         -20.3553    -4.5514    20.7455 H6            1 RES     
    1523 H6         -21.6509    -3.9002    19.6727 H6            1 RES     
    1524 H6         -13.4206    -9.6882    17.1556 H6            1 RES     
    1525 H6         -13.2021    -8.1951    16.2050 H6            1 RES     
    1526 H6         -13.6169    -8.2331    19.2658 H6            1 RES     
    1527 H6         -12.1143    -8.3334    18.3213 H6            1 RES     
    1528 H6         -12.6480    -6.1165    17.1839 H6            1 RES     
    1529 H6         -13.8606    -5.8314    18.4918 H6            1 RES     
    1530 H6         -11.8877    -6.1850    20.1811 H6            1 RES     
    1531 H6         -10.8420    -6.4583    18.7598 H6            1 RES     
    1532 H6         -11.4658    -4.1237    17.9166 H6            1 RES     
    1533 H6         -12.1673    -3.8253    19.5448 H6            1 RES     
    1534 H6          -9.8491    -2.9413    19.2859 H6            1 RES     
    1535 H6          -9.2465    -4.5474    18.7552 H6            1 RES     
    1536 H6          -9.6597    -5.4880    21.0231 H6            1 RES     
    1537 H6         -10.3131    -3.8939    21.5786 H6            1 RES     
    1538 H6          -8.0955    -2.8220    21.1028 H6            1 RES     
    1539 H6          -7.4443    -4.4048    20.5248 H6            1 RES     
    1540 H6          -7.9207    -4.2000    22.2500 H6            1 RES     
    1541 H6         -16.0854    -9.8248    11.9247 H6            1 RES     
    1542 H6         -15.4664    -8.4644    12.8465 H6            1 RES     
    1543 H6         -13.7902    -9.2450    11.5425 H6            1 RES     
    1544 H6         -12.9329   -10.0603    14.3941 H6            1 RES     
    1545 H6         -13.0955    -8.3675    13.6885 H6            1 RES     
    1546 H6         -10.9967   -10.4226    13.0035 H6            1 RES     
    1547 H6         -11.2900    -8.8046    12.1801 H6            1 RES     
    1548 H6          -9.4735    -8.6590    13.6583 H6            1 RES     
    1549 H6         -10.7946    -7.7192    14.4331 H6            1 RES     
    1550 H6         -10.0857   -10.6720    15.0857 H6            1 RES     
    1551 H6         -11.1445    -9.6103    16.0720 H6            1 RES     
    1552 H6          -8.1018    -9.2925    15.4954 H6            1 RES     
    1553 H6          -8.8068    -9.9903    16.9939 H6            1 RES     
    1554 H6          -8.0659    -7.6633    17.3477 H6            1 RES     
    1555 H6          -9.8369    -7.8724    17.5661 H6            1 RES     
    1556 H6          -9.1939    -7.0699    16.0732 H6            1 RES     
    1557 H6         -13.3813   -12.1163    12.5855 H6            1 RES     
    1558 H6         -14.3902   -11.6814    11.1541 H6            1 RES     
    1559 H6         -12.7607   -10.4997    10.0128 H6            1 RES     
    1560 H6         -11.4535   -10.8472    11.1097 H6            1 RES     
    1561 H6         -11.3940   -11.8768     9.0321 H6            1 RES     
    1562 H6         -12.7537   -12.9684     9.3373 H6            1 RES     
    1563 H6         -11.3047   -14.2656    10.9305 H6            1 RES     
    1564 H6         -10.1460   -12.8905    11.0774 H6            1 RES     
    1565 H6          -9.4858   -12.9797     8.7573 H6            1 RES     
    1566 H6         -10.5909   -14.3600     8.4042 H6            1 RES     
    1567 H6          -9.1963   -15.8540     9.7929 H6            1 RES     
    1568 H6          -8.1644   -14.4666    10.3270 H6            1 RES     
    1569 H6          -7.4560   -14.0068     7.9960 H6            1 RES     
    1570 H6          -8.5000   -15.3377     7.3730 H6            1 RES     
    1571 H6          -7.1247   -17.0113     8.5949 H6            1 RES     
    1572 H6          -6.0814   -15.6835     9.2603 H6            1 RES     
    1573 H6          -6.1239   -16.0030     7.4882 H6            1 RES     
    1574 C0         -23.0873    -0.1134    11.4362 C0            1 RES     
    1575 C1         -24.2604    -0.7460    11.1319 C1            1 RES     
    1576 C1         -24.8077    -1.3932    12.1799 C1            1 RES     
    1577 C1         -24.0557    -1.3175    13.2330 C1            1 RES     
    1578 C1         -22.8314    -0.5542    12.9341 C1            1 RES     
    1579 C1         -21.8907    -1.7263    13.1700 C1            1 RES     
    1580 C1         -22.3846    -2.7903    13.8679 C1            1 RES     
    1581 S2         -24.0574    -2.4983    14.5364 S2            1 RES     
    1582 C1         -21.6437    -4.1122    14.0214 C1            1 RES     
    1583 C1         -20.2494    -4.2165    13.7411 C1            1 RES     
    1584 N3         -19.5827    -5.4020    13.8523 N3            1 RES     
    1585 C1         -20.1921    -6.5541    14.2113 C1            1 RES     
    1586 C1         -21.5551    -6.5361    14.4796 C1            1 RES     
    1587 C1         -22.2861    -5.3122    14.3933 C1            1 RES     
    1588 N3         -23.6163    -5.4256    14.6675 N3            1 RES     
    1589 S2         -23.7862    -7.0386    15.0052 S2            1 RES     
    1590 N3         -22.2596    -7.6419    14.8228 N3            1 RES     
    1591 S2         -26.1752    -2.2747    11.7872 S2            1 RES     
    1592 C1         -26.0990    -1.8029    10.1627 C1            1 RES     
    1593 C1         -24.9716    -1.0010     9.9474 C1            1 RES     
    1594 C0         -23.3357     1.4549    11.2054 C0            1 RES     
    1595 C0         -24.4778     2.5549    10.9220 C0            1 RES     
    1596 C0         -25.4431     2.2590     9.7312 C0            1 RES     
    1597 C0         -26.9104     2.2214    10.1988 C0            1 RES     
    1598 C0         -27.9043     1.7512     9.1215 C0            1 RES     
    1599 C0         -29.3410     1.8633     9.6662 C0            1 RES     
    1600 C0         -30.3851     1.2302     8.7380 C0            1 RES     
    1601 C0         -31.7924     1.4044     9.3138 C0            1 RES     
    1602 C0         -23.6772     3.9068    10.6572 C0            1 RES     
    1603 C0         -24.2778     5.3064    10.3148 C0            1 RES     
    1604 C0         -24.6451     5.5895     8.8258 C0            1 RES     
    1605 C0         -24.5195     7.1060     8.4837 C0            1 RES     
    1606 C0         -24.7700     7.4286     6.9959 C0            1 RES     
    1607 C0         -24.1750     8.7834     6.5313 C0            1 RES     
    1608 C0         -24.6804    10.0236     7.2827 C0            1 RES     
    1609 C0         -24.0543    11.2995     6.7033 C0            1 RES     
    1610 C0         -21.9111    -0.4155    10.3882 C0            1 RES     
    1611 C0         -20.4524     0.3251    10.2873 C0            1 RES     
    1612 C0         -20.5611     1.8771    10.0039 C0            1 RES     
    1613 C0         -19.3171     2.6437     9.5664 C0            1 RES     
    1614 C0         -19.5523     4.1085     9.1556 C0            1 RES     
    1615 C0         -19.8489     5.0334    10.3543 C0            1 RES     
    1616 C0         -19.5685     6.5123    10.0313 C0            1 RES     
    1617 C0         -20.5052     7.1029     8.9917 C0            1 RES     
    1618 C0         -19.2957    -0.0460    11.3231 C0            1 RES     
    1619 C0         -17.8710     0.0199    10.6525 C0            1 RES     
    1620 C0         -16.5603    -0.4437    11.3460 C0            1 RES     
    1621 C0         -15.7711     0.5704    12.2374 C0            1 RES     
    1622 C0         -14.2463     0.2676    12.1015 C0            1 RES     
    1623 C0         -13.2680     1.1713    12.8827 C0            1 RES     
    1624 C0         -11.8205     0.8786    12.4136 C0            1 RES     
    1625 C0         -10.7590     1.6790    13.1668 C0            1 RES     
    1626 H4         -20.9272    -1.7535    12.7327 H4            1 RES     
    1627 H5         -19.6757    -3.3507    13.4529 H5            1 RES     
    1628 H4         -24.6913    -0.6572     8.9644 H4            1 RES     
    1629 H6         -22.7643     1.9038    12.0459 H6            1 RES     
    1630 H6         -22.9074     1.6343    10.2400 H6            1 RES     
    1631 H6         -25.0754     2.6932    11.8498 H6            1 RES     
    1632 H6         -25.3515     3.0098     8.9261 H6            1 RES     
    1633 H6         -25.1591     1.3439     9.2246 H6            1 RES     
    1634 H6         -26.9992     1.5189    11.0566 H6            1 RES     
    1635 H6         -27.1845     3.2437    10.5415 H6            1 RES     
    1636 H6         -27.8153     2.3653     8.1983 H6            1 RES     
    1637 H6         -27.6742     0.6924     8.8695 H6            1 RES     
    1638 H6         -29.5793     2.9403     9.8159 H6            1 RES     
    1639 H6         -29.4042     1.3462    10.6486 H6            1 RES     
    1640 H6         -30.3474     1.6978     7.7309 H6            1 RES     
    1641 H6         -30.1725     0.1432     8.6375 H6            1 RES     
    1642 H6         -31.8585     0.9528    10.3274 H6            1 RES     
    1643 H6         -32.0486     2.4835     9.3839 H6            1 RES     
    1644 H6         -32.5365     0.9062     8.6576 H6            1 RES     
    1645 H6         -23.1082     4.0737    11.5981 H6            1 RES     
    1646 H6         -22.9234     3.7349     9.8569 H6            1 RES     
    1647 H6         -25.0754     5.6232    11.0166 H6            1 RES     
    1648 H6         -23.4094     5.9760    10.5065 H6            1 RES     
    1649 H6         -23.9026     5.0752     8.1745 H6            1 RES     
    1650 H6         -25.6569     5.2047     8.5849 H6            1 RES     
    1651 H6         -25.1833     7.7261     9.1223 H6            1 RES     
    1652 H6         -23.4806     7.4021     8.6933 H6            1 RES     
    1653 H6         -24.2605     6.6633     6.3702 H6            1 RES     
    1654 H6         -25.8588     7.3756     6.7830 H6            1 RES     
    1655 H6         -24.4061     8.9034     5.4496 H6            1 RES     
    1656 H6         -23.0675     8.7405     6.6353 H6            1 RES     
    1657 H6         -24.3996     9.9522     8.3547 H6            1 RES     
    1658 H6         -25.7845    10.0962     7.1980 H6            1 RES     
    1659 H6         -24.3384    11.4235     5.6358 H6            1 RES     
    1660 H6         -22.9454    11.2635     6.7749 H6            1 RES     
    1661 H6         -24.4114    12.1886     7.2653 H6            1 RES     
    1662 H6         -21.7135    -1.5092    10.4285 H6            1 RES     
    1663 H6         -22.3477    -0.2547     9.3759 H6            1 RES     
    1664 H6         -20.0892    -0.1232     9.3372 H6            1 RES     
    1665 H6         -20.9374     2.3975    10.9049 H6            1 RES     
    1666 H6         -21.2428     1.9948     9.1345 H6            1 RES     
    1667 H6         -18.5985     2.6993    10.4029 H6            1 RES     
    1668 H6         -18.8953     2.1132     8.6854 H6            1 RES     
    1669 H6         -18.5858     4.4389     8.7198 H6            1 RES     
    1670 H6         -20.3304     4.1958     8.3648 H6            1 RES     
    1671 H6         -19.1462     4.7801    11.1762 H6            1 RES     
    1672 H6         -20.8821     4.8841    10.7326 H6            1 RES     
    1673 H6         -18.5197     6.6152     9.6773 H6            1 RES     
    1674 H6         -19.6736     7.1079    10.9639 H6            1 RES     
    1675 H6         -20.2308     8.1632     8.8040 H6            1 RES     
    1676 H6         -21.5251     7.0692     9.4005 H6            1 RES     
    1677 H6         -20.4565     6.5508     8.0308 H6            1 RES     
    1678 H6         -19.3840     0.5421    12.2628 H6            1 RES     
    1679 H6         -19.3720    -1.1196    11.5597 H6            1 RES     
    1680 H6         -17.9695    -0.6587     9.7780 H6            1 RES     
    1681 H6         -17.6003     0.9820    10.2307 H6            1 RES     
    1682 H6         -15.9055    -0.5854    10.4568 H6            1 RES     
    1683 H6         -16.6402    -1.4441    11.8192 H6            1 RES     
    1684 H6         -16.1260     0.5287    13.2901 H6            1 RES     
    1685 H6         -15.9133     1.6061    11.8587 H6            1 RES     
    1686 H6         -13.9970     0.3988    11.0241 H6            1 RES     
    1687 H6         -14.0438    -0.7890    12.3798 H6            1 RES     
    1688 H6         -13.3696     0.9760    13.9721 H6            1 RES     
    1689 H6         -13.4875     2.2431    12.6854 H6            1 RES     
    1690 H6         -11.7332     1.1301    11.3324 H6            1 RES     
    1691 H6         -11.5901    -0.2015    12.5389 H6            1 RES     
    1692 H6         -10.7609     1.4090    14.2432 H6            1 RES     
    1693 H6         -10.9294     2.7699    13.0541 H6            1 RES     
    1694 H6          -9.7550     1.4385    12.7497 H6            1 RES     
    1695 C0         -29.8879    -5.4769     2.6173 C0            1 RES     
    1696 C1         -30.2879    -6.5832     3.3137 C1            1 RES     
    1697 C1         -31.0740    -6.2962     4.3702 C1            1 RES     
    1698 C1         -31.2220    -5.0172     4.5213 C1            1 RES     
    1699 C1         -30.4647    -4.2887     3.4885 C1            1 RES     
    1700 C1         -29.5198    -3.6177     4.4741 C1            1 RES     
    1701 C1         -29.9003    -3.5953     5.7847 C1            1 RES     
    1702 S2         -31.5867    -4.2382     6.0553 S2            1 RES     
    1703 C1         -28.9893    -3.1398     6.9171 C1            1 RES     
    1704 C1         -27.8046    -2.3894     6.6582 C1            1 RES     
    1705 N3         -26.9698    -1.9982     7.6643 N3            1 RES     
    1706 C1         -27.1909    -2.3078     8.9615 C1            1 RES     
    1707 C1         -28.3144    -3.0561     9.2900 C1            1 RES     
    1708 C1         -29.2236    -3.4691     8.2690 C1            1 RES     
    1709 N3         -30.2794    -4.2069     8.7144 N3            1 RES     
    1710 S2         -30.0104    -4.2860    10.3472 S2            1 RES     
    1711 N3         -28.6093    -3.4369    10.5568 N3            1 RES     
    1712 S2         -31.4638    -7.6309     5.3018 S2            1 RES     
    1713 C1         -30.5888    -8.6759     4.2970 C1            1 RES     
    1714 C1         -29.9647    -7.9500     3.2752 C1            1 RES     
    1715 C0         -30.4984    -5.6163     1.1400 C0            1 RES     
    1716 C0         -31.5283    -6.4692     0.2420 C0            1 RES     
    1717 C0         -31.3638    -8.0211     0.2863 C0            1 RES     
    1718 C0         -32.6619    -8.7064     0.7535 C0            1 RES     
    1719 C0         -32.5227   -10.2191     1.0024 C0            1 RES     
    1720 C0         -33.9019   -10.8096     1.3526 C0            1 RES     
    1721 C0         -33.8291   -12.2712     1.8119 C0            1 RES     
    1722 C0         -35.2296   -12.8114     2.1100 C0            1 RES     
    1723 C0         -31.3050    -5.9353    -1.2426 C0            1 RES     
    1724 C0         -32.0309    -6.4186    -2.5373 C0            1 RES     
    1725 C0         -31.4793    -7.6972    -3.2394 C0            1 RES     
    1726 C0         -31.7410    -7.6640    -4.7766 C0            1 RES     
    1727 C0         -31.1230    -8.8561    -5.5365 C0            1 RES     
    1728 C0         -30.9220    -8.6061    -7.0539 C0            1 RES     
    1729 C0         -32.1931    -8.2648    -7.8451 C0            1 RES     
    1730 C0         -31.8709    -8.0850    -9.3349 C0            1 RES     
    1731 C0         -28.3122    -5.4486     2.3184 C0            1 RES     
    1732 C0         -27.5042    -4.4199     1.3307 C0            1 RES     
    1733 C0         -27.9787    -4.5023    -0.1756 C0            1 RES     
    1734 C0         -27.1239    -3.8585    -1.2625 C0            1 RES     
    1735 C0         -27.5766    -4.1299    -2.7085 C0            1 RES     
    1736 C0         -28.8596    -3.3653    -3.0951 C0            1 RES     
    1737 C0         -29.0110    -3.2163    -4.6198 C0            1 RES     
    1738 C0         -29.2461    -4.5296    -5.3456 C0            1 RES     
    1739 C0         -27.1940    -2.9298     1.8121 C0            1 RES     
    1740 C0         -25.8116    -2.4149     1.2572 C0            1 RES     
    1741 C0         -25.1498    -1.0738     1.6781 C0            1 RES     
    1742 C0         -25.5188     0.2333     0.9026 C0            1 RES     
    1743 C0         -24.2583     1.1519     0.8517 C0            1 RES     
    1744 C0         -24.3867     2.4973     0.1050 C0            1 RES     
    1745 C0         -22.9798     3.1265    -0.0548 C0            1 RES     
    1746 C0         -22.9948     4.4964    -0.7314 C0            1 RES     
    1747 H4         -28.5684    -3.2670     4.1704 H4            1 RES     
    1748 H5         -27.5464    -2.0898     5.6556 H5            1 RES     
    1749 H4         -29.2931    -8.4132     2.5700 H4            1 RES     
    1750 H6         -30.7798    -4.5668     0.9080 H6            1 RES     
    1751 H6         -29.6734    -5.9854     0.5647 H6            1 RES     
    1752 H6         -32.5656    -6.2040     0.5432 H6            1 RES     
    1753 H6         -31.0831    -8.4370    -0.6979 H6            1 RES     
    1754 H6         -30.5174    -8.3003     0.9029 H6            1 RES     
    1755 H6         -32.9907    -8.2449     1.7106 H6            1 RES     
    1756 H6         -33.4405    -8.5236    -0.0198 H6            1 RES     
    1757 H6         -32.1210   -10.7380     0.1043 H6            1 RES     
    1758 H6         -31.8170   -10.3723     1.8487 H6            1 RES     
    1759 H6         -34.5572   -10.7327     0.4561 H6            1 RES     
    1760 H6         -34.3575   -10.2185     2.1768 H6            1 RES     
    1761 H6         -33.3578   -12.9037     1.0295 H6            1 RES     
    1762 H6         -33.2180   -12.3321     2.7392 H6            1 RES     
    1763 H6         -35.7306   -12.1919     2.8852 H6            1 RES     
    1764 H6         -35.8496   -12.8033     1.1877 H6            1 RES     
    1765 H6         -35.1636   -13.8552     2.4825 H6            1 RES     
    1766 H6         -31.5457    -4.8513    -1.1799 H6            1 RES     
    1767 H6         -30.2243    -6.0060    -1.4982 H6            1 RES     
    1768 H6         -33.1352    -6.4301    -2.4406 H6            1 RES     
    1769 H6         -31.7886    -5.5983    -3.2497 H6            1 RES     
    1770 H6         -30.3716    -7.7125    -3.1266 H6            1 RES     
    1771 H6         -31.8967    -8.6159    -2.7795 H6            1 RES     
    1772 H6         -32.8250    -7.5901    -5.0059 H6            1 RES     
    1773 H6         -31.2527    -6.7600    -5.1706 H6            1 RES     
    1774 H6         -30.1013    -9.0456    -5.1404 H6            1 RES     
    1775 H6         -31.7339    -9.7665    -5.3583 H6            1 RES     
    1776 H6         -30.4648    -9.5210    -7.4918 H6            1 RES     
    1777 H6         -30.1961    -7.7724    -7.1846 H6            1 RES     
    1778 H6         -32.6276    -7.3164    -7.4645 H6            1 RES     
    1779 H6         -32.9394    -9.0787    -7.7358 H6            1 RES     
    1780 H6         -31.4609    -9.0259    -9.7617 H6            1 RES     
    1781 H6         -31.1266    -7.2725    -9.4832 H6            1 RES     
    1782 H6         -32.7928    -7.8200    -9.8951 H6            1 RES     
    1783 H6         -27.7955    -5.4204     3.3028 H6            1 RES     
    1784 H6         -28.0561    -6.4508     1.9049 H6            1 RES     
    1785 H6         -26.5027    -4.9018     1.3509 H6            1 RES     
    1786 H6         -28.9858    -4.0554    -0.2766 H6            1 RES     
    1787 H6         -27.9655    -5.5776    -0.4550 H6            1 RES     
    1788 H6         -27.1550    -2.7594    -1.1609 H6            1 RES     
    1789 H6         -26.0935    -4.2610    -1.1538 H6            1 RES     
    1790 H6         -26.7558    -3.7312    -3.3416 H6            1 RES     
    1791 H6         -27.6677    -5.2196    -2.9151 H6            1 RES     
    1792 H6         -28.7790    -2.3264    -2.7110 H6            1 RES     
    1793 H6         -29.7585    -3.8284    -2.6361 H6            1 RES     
    1794 H6         -28.0991    -2.7309    -5.0306 H6            1 RES     
    1795 H6         -29.8758    -2.5501    -4.8297 H6            1 RES     
    1796 H6         -29.3303    -4.3408    -6.4374 H6            1 RES     
    1797 H6         -30.1970    -4.9473    -4.9852 H6            1 RES     
    1798 H6         -28.4196    -5.2494    -5.1751 H6            1 RES     
    1799 H6         -28.0485    -2.2479     1.6085 H6            1 RES     
    1800 H6         -26.9964    -2.9485     2.8962 H6            1 RES     
    1801 H6         -25.0941    -3.1908     1.6012 H6            1 RES     
    1802 H6         -25.7186    -2.4077     0.1764 H6            1 RES     
    1803 H6         -24.0950    -1.2724     1.3826 H6            1 RES     
    1804 H6         -25.1269    -0.9173     2.7764 H6            1 RES     
    1805 H6         -26.3966     0.7326     1.3673 H6            1 RES     
    1806 H6         -25.7679    -0.0048    -0.1545 H6            1 RES     
    1807 H6         -23.4720     0.5733     0.3158 H6            1 RES     
    1808 H6         -23.8977     1.3576     1.8825 H6            1 RES     
    1809 H6         -25.0534     3.1784     0.6766 H6            1 RES     
    1810 H6         -24.8143     2.3394    -0.9089 H6            1 RES     
    1811 H6         -22.3488     2.4483    -0.6728 H6            1 RES     
    1812 H6         -22.4972     3.2395     0.9401 H6            1 RES     
    1813 H6         -23.5563     5.2277    -0.1139 H6            1 RES     
    1814 H6         -23.4470     4.4351    -1.7431 H6            1 RES     
    1815 H6         -21.9489     4.8627    -0.8392 H6            1 RES     
    1816 C0         -27.2566   -17.1269     5.8021 C0            1 RES     
    1817 C1         -27.5550   -17.0459     7.1337 C1            1 RES     
    1818 C1         -28.8579   -16.8006     7.3770 C1            1 RES     
    1819 C1         -29.5255   -16.6350     6.2782 C1            1 RES     
    1820 C1         -28.6319   -16.7560     5.1130 C1            1 RES     
    1821 C1         -28.8231   -15.3173     4.6568 C1            1 RES     
    1822 C1         -29.9006   -14.6441     5.1554 C1            1 RES     
    1823 S2         -31.0079   -15.6969     6.1535 S2            1 RES     
    1824 C1         -30.1261   -13.1513     4.9544 C1            1 RES     
    1825 C1         -29.4163   -12.4233     3.9545 C1            1 RES     
    1826 N3         -29.5939   -11.0811     3.7834 N3            1 RES     
    1827 C1         -30.4294   -10.3488     4.5537 C1            1 RES     
    1828 C1         -31.1399   -10.9848     5.5641 C1            1 RES     
    1829 C1         -30.9971   -12.3917     5.7639 C1            1 RES     
    1830 N3         -31.7358   -12.8963     6.7921 N3            1 RES     
    1831 S2         -32.5195   -11.5577     7.3738 S2            1 RES     
    1832 N3         -31.9821   -10.3341     6.4033 N3            1 RES     
    1833 S2         -29.2091   -16.5738     8.9976 S2            1 RES     
    1834 C1         -27.5964   -16.8158     9.4536 C1            1 RES     
    1835 C1         -26.8017   -17.0213     8.3193 C1            1 RES     
    1836 C0         -26.7263   -18.6181     5.5381 C0            1 RES     
    1837 C0         -26.5810   -20.0759     6.2076 C0            1 RES     
    1838 C0         -25.9210   -20.1252     7.6217 C0            1 RES     
    1839 C0         -26.8618   -20.7751     8.6539 C0            1 RES     
    1840 C0         -26.3593   -20.6912    10.1065 C0            1 RES     
    1841 C0         -27.3199   -21.4686    11.0265 C0            1 RES     
    1842 C0         -27.0116   -21.2744    12.5164 C0            1 RES     
    1843 C0         -27.9738   -22.0973    13.3761 C0            1 RES     
    1844 C0         -25.7119   -20.9119     5.1663 C0            1 RES     
    1845 C0         -25.2473   -22.3959     5.3031 C0            1 RES     
    1846 C0         -23.9599   -22.6751     6.1380 C0            1 RES     
    1847 C0         -23.2128   -23.9464     5.6298 C0            1 RES     
    1848 C0         -21.8757   -24.2100     6.3529 C0            1 RES     
    1849 C0         -20.8972   -25.1203     5.5659 C0            1 RES     
    1850 C0         -21.4263   -26.5190     5.2168 C0            1 RES     
    1851 C0         -20.3543   -27.3349     4.4814 C0            1 RES     
    1852 C0         -25.9828   -16.2477     5.3809 C0            1 RES     
    1853 C0         -25.1920   -16.2640     3.9453 C0            1 RES     
    1854 C0         -24.5699   -17.6747     3.5937 C0            1 RES     
    1855 C0         -23.5437   -17.7776     2.4699 C0            1 RES     
    1856 C0         -22.8736   -19.1540     2.3090 C0            1 RES     
    1857 C0         -23.8152   -20.2198     1.7108 C0            1 RES     
    1858 C0         -23.0414   -21.3915     1.0798 C0            1 RES     
    1859 C0         -22.2764   -22.2353     2.0847 C0            1 RES     
    1860 C0         -25.8198   -15.5201     2.6800 C0            1 RES     
    1861 C0         -24.7036   -14.8958     1.7590 C0            1 RES     
    1862 C0         -24.9937   -13.9709     0.5449 C0            1 RES     
    1863 C0         -25.2581   -14.6141    -0.8559 C0            1 RES     
    1864 C0         -24.6848   -13.6646    -1.9535 C0            1 RES     
    1865 C0         -24.8129   -14.1164    -3.4244 C0            1 RES     
    1866 C0         -23.9638   -13.1795    -4.3200 C0            1 RES     
    1867 C0         -24.0647   -13.5000    -5.8106 C0            1 RES     
    1868 H4         -28.1015   -14.8324     4.0531 H4            1 RES     
    1869 H5         -28.7318   -12.9213     3.2873 H5            1 RES     
    1870 H4         -25.7292   -17.1176     8.3799 H4            1 RES     
    1871 H6         -27.1677   -18.8461     4.5444 H6            1 RES     
    1872 H6         -25.6610   -18.5041     5.5279 H6            1 RES     
    1873 H6         -27.5883   -20.5447     6.2592 H6            1 RES     
    1874 H6         -24.9682   -20.6843     7.6157 H6            1 RES     
    1875 H6         -25.6045   -19.1363     7.9326 H6            1 RES     
    1876 H6         -27.8484   -20.2628     8.6176 H6            1 RES     
    1877 H6         -26.9992   -21.8407     8.3655 H6            1 RES     
    1878 H6         -25.3367   -21.1184    10.2024 H6            1 RES     
    1879 H6         -26.3284   -19.6203    10.4062 H6            1 RES     
    1880 H6         -27.2567   -22.5500    10.7705 H6            1 RES     
    1881 H6         -28.3615   -21.1223    10.8488 H6            1 RES     
    1882 H6         -25.9695   -21.5853    12.7436 H6            1 RES     
    1883 H6         -27.1306   -20.1996    12.7763 H6            1 RES     
    1884 H6         -29.0275   -21.8137    13.1640 H6            1 RES     
    1885 H6         -27.8447   -23.1813    13.1681 H6            1 RES     
    1886 H6         -27.7712   -21.9172    14.4528 H6            1 RES     
    1887 H6         -26.3182   -20.8977     4.2340 H6            1 RES     
    1888 H6         -24.7739   -20.3563     4.9432 H6            1 RES     
    1889 H6         -26.0740   -23.0914     5.5520 H6            1 RES     
    1890 H6         -24.9437   -22.6330     4.2587 H6            1 RES     
    1891 H6         -23.2494   -21.8315     5.9849 H6            1 RES     
    1892 H6         -24.1948   -22.7510     7.2191 H6            1 RES     
    1893 H6         -23.8570   -24.8492     5.6846 H6            1 RES     
    1894 H6         -22.9634   -23.7763     4.5716 H6            1 RES     
    1895 H6         -21.3346   -23.2459     6.4732 H6            1 RES     
    1896 H6         -22.0760   -24.6191     7.3659 H6            1 RES     
    1897 H6         -19.9719   -25.2310     6.1738 H6            1 RES     
    1898 H6         -20.6173   -24.6075     4.6185 H6            1 RES     
    1899 H6         -22.3130   -26.4294     4.5543 H6            1 RES     
    1900 H6         -21.7147   -27.0588     6.1426 H6            1 RES     
    1901 H6         -19.4592   -27.4735     5.1257 H6            1 RES     
    1902 H6         -20.0429   -26.8245     3.5441 H6            1 RES     
    1903 H6         -20.7528   -28.3374     4.2169 H6            1 RES     
    1904 H6         -26.2355   -15.1863     5.5960 H6            1 RES     
    1905 H6         -25.1807   -16.4909     6.1149 H6            1 RES     
    1906 H6         -24.3269   -15.6181     4.2100 H6            1 RES     
    1907 H6         -25.3766   -18.3864     3.3346 H6            1 RES     
    1908 H6         -23.9930   -17.9994     4.4860 H6            1 RES     
    1909 H6         -24.0331   -17.5889     1.4981 H6            1 RES     
    1910 H6         -22.7419   -17.0388     2.6864 H6            1 RES     
    1911 H6         -22.0591   -18.9879     1.5726 H6            1 RES     
    1912 H6         -22.4089   -19.5006     3.2589 H6            1 RES     
    1913 H6         -24.3774   -19.7604     0.8704 H6            1 RES     
    1914 H6         -24.5539   -20.5719     2.4614 H6            1 RES     
    1915 H6         -22.3312   -20.9933     0.3227 H6            1 RES     
    1916 H6         -23.7626   -22.0548     0.5550 H6            1 RES     
    1917 H6         -21.7357   -23.0473     1.5527 H6            1 RES     
    1918 H6         -23.0078   -22.6878     2.7694 H6            1 RES     
    1919 H6         -21.5380   -21.6331     2.6525 H6            1 RES     
    1920 H6         -26.5436   -16.1700     2.1410 H6            1 RES     
    1921 H6         -26.3393   -14.6140     3.0316 H6            1 RES     
    1922 H6         -24.1270   -14.2525     2.4580 H6            1 RES     
    1923 H6         -23.9787   -15.6003     1.3651 H6            1 RES     
    1924 H6         -24.0022   -13.4775     0.4307 H6            1 RES     
    1925 H6         -25.7085   -13.1533     0.7724 H6            1 RES     
    1926 H6         -26.3404   -14.8271    -0.9937 H6            1 RES     
    1927 H6         -24.6964   -15.5689    -0.9521 H6            1 RES     
    1928 H6         -23.5935   -13.5756    -1.7502 H6            1 RES     
    1929 H6         -25.1405   -12.6557    -1.8571 H6            1 RES     
    1930 H6         -25.8804   -14.0846    -3.7322 H6            1 RES     
    1931 H6         -24.4320   -15.1537    -3.5467 H6            1 RES     
    1932 H6         -22.8940   -13.2687    -4.0242 H6            1 RES     
    1933 H6         -24.2781   -12.1235    -4.1732 H6            1 RES     
    1934 H6         -25.1053   -13.3566    -6.1685 H6            1 RES     
    1935 H6         -23.7380   -14.5405    -6.0164 H6            1 RES     
    1936 H6         -23.4029   -12.8084    -6.3792 H6            1 RES     
    1937 C0         -23.0743   -14.5013    17.1335 C0            1 RES     
    1938 C1         -24.1289   -13.7490    17.5701 C1            1 RES     
    1939 C1         -25.2788   -14.4450    17.6695 C1            1 RES     
    1940 C1         -25.1329   -15.6679    17.2649 C1            1 RES     
    1941 C1         -23.7496   -15.8955    16.8115 C1            1 RES     
    1942 C1         -24.1341   -16.1721    15.3658 C1            1 RES     
    1943 C1         -25.4410   -16.4770    15.1166 C1            1 RES     
    1944 S2         -26.4383   -16.6631    16.6336 S2            1 RES     
    1945 C1         -26.0258   -16.5889    13.7147 C1            1 RES     
    1946 C1         -25.1853   -16.7194    12.5700 C1            1 RES     
    1947 N3         -25.6995   -16.7957    11.3083 N3            1 RES     
    1948 C1         -27.0255   -16.7325    11.0527 C1            1 RES     
    1949 C1         -27.9068   -16.5835    12.1163 C1            1 RES     
    1950 C1         -27.4107   -16.5189    13.4540 C1            1 RES     
    1951 N3         -28.3711   -16.3603    14.4079 N3            1 RES     
    1952 S2         -29.7689   -16.3196    13.5197 S2            1 RES     
    1953 N3         -29.2496   -16.4862    11.9607 N3            1 RES     
    1954 S2         -26.6013   -13.5051    18.0806 S2            1 RES     
    1955 C1         -25.6647   -12.0967    18.1600 C1            1 RES     
    1956 C1         -24.3382   -12.3812    17.8134 C1            1 RES     
    1957 C0         -21.9920   -14.5097    18.3181 C0            1 RES     
    1958 C0         -21.7633   -14.1153    19.8630 C0            1 RES     
    1959 C0         -22.1507   -12.6586    20.2698 C0            1 RES     
    1960 C0         -23.2012   -12.6549    21.3965 C0            1 RES     
    1961 C0         -23.7714   -11.2628    21.7231 C0            1 RES     
    1962 C0         -24.7199   -11.3687    22.9324 C0            1 RES     
    1963 C0         -25.4893   -10.0704    23.2063 C0            1 RES     
    1964 C0         -26.3853   -10.2260    24.4373 C0            1 RES     
    1965 C0         -20.2094   -14.3613    20.1151 C0            1 RES     
    1966 C0         -19.4215   -14.1288    21.4425 C0            1 RES     
    1967 C0         -18.9306   -12.6800    21.7462 C0            1 RES     
    1968 C0         -17.6283   -12.6851    22.6044 C0            1 RES     
    1969 C0         -17.0399   -11.2795    22.8463 C0            1 RES     
    1970 C0         -15.5382   -11.2781    23.2336 C0            1 RES     
    1971 C0         -15.1781   -12.0675    24.5007 C0            1 RES     
    1972 C0         -13.6774   -11.9529    24.8012 C0            1 RES     
    1973 C0         -22.2501   -13.8110    15.9430 C0            1 RES     
    1974 C0         -20.8116   -14.2891    15.3196 C0            1 RES     
    1975 C0         -19.6411   -14.2866    16.3831 C0            1 RES     
    1976 C0         -18.1973   -14.3908    15.9025 C0            1 RES     
    1977 C0         -17.1229   -14.2150    16.9907 C0            1 RES     
    1978 C0         -17.0212   -15.4250    17.9425 C0            1 RES     
    1979 C0         -15.6616   -15.4866    18.6619 C0            1 RES     
    1980 C0         -15.4319   -14.3484    19.6410 C0            1 RES     
    1981 C0         -20.7490   -15.5306    14.3180 C0            1 RES     
    1982 C0         -19.6346   -15.3372    13.2204 C0            1 RES     
    1983 C0         -19.4342   -16.2862    12.0068 C0            1 RES     
    1984 C0         -18.5231   -17.5470    12.1689 C0            1 RES     
    1985 C0         -17.7999   -17.8136    10.8121 C0            1 RES     
    1986 C0         -16.8212   -19.0062    10.7486 C0            1 RES     
    1987 C0         -16.0244   -18.9400     9.4214 C0            1 RES     
    1988 C0         -15.0630   -20.1113     9.2251 C0            1 RES     
    1989 H4         -23.4386   -16.0428    14.5785 H4            1 RES     
    1990 H5         -24.1144   -16.7840    12.6733 H5            1 RES     
    1991 H4         -23.5904   -11.6093    17.7236 H4            1 RES     
    1992 H6         -21.6073   -15.5509    18.2700 H6            1 RES     
    1993 H6         -21.2834   -13.7668    18.0118 H6            1 RES     
    1994 H6         -22.3260   -14.8331    20.4996 H6            1 RES     
    1995 H6         -21.2751   -12.0747    20.6057 H6            1 RES     
    1996 H6         -22.4848   -12.0946    19.4067 H6            1 RES     
    1997 H6         -24.0572   -13.2981    21.0955 H6            1 RES     
    1998 H6         -22.7275   -13.0887    22.3047 H6            1 RES     
    1999 H6         -22.9581   -10.5417    21.9594 H6            1 RES     
    2000 H6         -24.3284   -10.8939    20.8336 H6            1 RES     
    2001 H6         -24.1201   -11.6429    23.8292 H6            1 RES     
    2002 H6         -25.4665   -12.1714    22.7462 H6            1 RES     
    2003 H6         -24.7857    -9.2277    23.3768 H6            1 RES     
    2004 H6         -26.1282    -9.8328    22.3274 H6            1 RES     
    2005 H6         -27.0961   -11.0694    24.2991 H6            1 RES     
    2006 H6         -25.7678   -10.4208    25.3405 H6            1 RES     
    2007 H6         -26.9700    -9.2967    24.6023 H6            1 RES     
    2008 H6         -20.0669   -15.4422    19.8956 H6            1 RES     
    2009 H6         -19.6221   -13.8025    19.3527 H6            1 RES     
    2010 H6         -19.8952   -14.6099    22.3218 H6            1 RES     
    2011 H6         -18.4817   -14.6926    21.2470 H6            1 RES     
    2012 H6         -18.6514   -12.1925    20.7848 H6            1 RES     
    2013 H6         -19.7294   -12.0819    22.2299 H6            1 RES     
    2014 H6         -17.7791   -13.2042    23.5744 H6            1 RES     
    2015 H6         -16.8681   -13.2451    22.0392 H6            1 RES     
    2016 H6         -17.0910   -10.6993    21.8990 H6            1 RES     
    2017 H6         -17.6500   -10.7479    23.6071 H6            1 RES     
    2018 H6         -15.2234   -10.2200    23.3717 H6            1 RES     
    2019 H6         -14.9509   -11.6952    22.3849 H6            1 RES     
    2020 H6         -15.4246   -13.1406    24.3560 H6            1 RES     
    2021 H6         -15.7480   -11.6752    25.3683 H6            1 RES     
    2022 H6         -13.3957   -10.8931    24.9832 H6            1 RES     
    2023 H6         -13.0734   -12.3413    23.9525 H6            1 RES     
    2024 H6         -13.4240   -12.5422    25.7081 H6            1 RES     
    2025 H6         -22.9500   -13.6995    15.0859 H6            1 RES     
    2026 H6         -22.0499   -12.7648    16.2692 H6            1 RES     
    2027 H6         -20.6074   -13.4221    14.6547 H6            1 RES     
    2028 H6         -19.7836   -15.1175    17.0997 H6            1 RES     
    2029 H6         -19.6653   -13.2933    16.8803 H6            1 RES     
    2030 H6         -18.0131   -15.3973    15.4870 H6            1 RES     
    2031 H6         -18.0421   -13.5902    15.1472 H6            1 RES     
    2032 H6         -16.1635   -14.1559    16.4344 H6            1 RES     
    2033 H6         -17.2525   -13.2610    17.5488 H6            1 RES     
    2034 H6         -17.0683   -16.3543    17.3361 H6            1 RES     
    2035 H6         -17.8676   -15.4449    18.6610 H6            1 RES     
    2036 H6         -14.8481   -15.4853    17.9041 H6            1 RES     
    2037 H6         -15.5993   -16.4417    19.2272 H6            1 RES     
    2038 H6         -14.4284   -14.4554    20.1064 H6            1 RES     
    2039 H6         -16.1957   -14.4227    20.4280 H6            1 RES     
    2040 H6         -15.4859   -13.3585    19.1435 H6            1 RES     
    2041 H6         -20.6847   -16.4959    14.8665 H6            1 RES     
    2042 H6         -21.6616   -15.5256    13.7003 H6            1 RES     
    2043 H6         -19.8974   -14.3604    12.7600 H6            1 RES     
    2044 H6         -18.6269   -15.2052    13.5998 H6            1 RES     
    2045 H6         -18.8533   -15.6208    11.3291 H6            1 RES     
    2046 H6         -20.3747   -16.5155    11.4645 H6            1 RES     
    2047 H6         -19.1165   -18.4195    12.5190 H6            1 RES     
    2048 H6         -17.7196   -17.3472    12.9110 H6            1 RES     
    2049 H6         -17.1947   -16.9038    10.5970 H6            1 RES     
    2050 H6         -18.5495   -17.9334    10.0005 H6            1 RES     
    2051 H6         -17.3901   -19.9588    10.8122 H6            1 RES     
    2052 H6         -16.0976   -18.9601    11.5914 H6            1 RES     
    2053 H6         -15.4253   -18.0015     9.4060 H6            1 RES     
    2054 H6         -16.7233   -18.9203     8.5574 H6            1 RES     
    2055 H6         -15.6236   -21.0671     9.1638 H6            1 RES     
    2056 H6         -14.3249   -20.1627    10.0523 H6            1 RES     
    2057 H6         -14.5070   -19.9724     8.2705 H6            1 RES     
    2058 C0         -28.0657    -3.2138    17.8169 C0            1 RES     
    2059 C1         -29.3476    -3.5371    17.4694 C1            1 RES     
    2060 C1         -29.9555    -4.3479    18.3581 C1            1 RES     
    2061 C1         -29.1546    -4.6885    19.3188 C1            1 RES     
    2062 C1         -27.8261    -4.0844    19.1163 C1            1 RES     
    2063 C1         -27.1066    -5.4141    18.9477 C1            1 RES     
    2064 C1         -27.7547    -6.5326    19.3860 C1            1 RES     
    2065 S2         -29.3128    -6.1645    20.2619 S2            1 RES     
    2066 C1         -27.2627    -7.9489    19.1178 C1            1 RES     
    2067 C1         -25.9257    -8.1998    18.6901 C1            1 RES     
    2068 N3         -25.4834    -9.4631    18.4240 N3            1 RES     
    2069 C1         -26.2766   -10.5531    18.5246 C1            1 RES     
    2070 C1         -27.5994   -10.3858    18.9151 C1            1 RES     
    2071 C1         -28.0965    -9.0825    19.2214 C1            1 RES     
    2072 N3         -29.4108    -9.0467    19.5802 N3            1 RES     
    2073 S2         -29.8581   -10.6397    19.4984 S2            1 RES     
    2074 N3         -28.4782   -11.4120    19.0217 N3            1 RES     
    2075 S2         -31.4782    -4.8510    17.8788 S2            1 RES     
    2076 C1         -31.3917    -3.9709    16.4348 C1            1 RES     
    2077 C1         -30.1474    -3.3371    16.3318 C1            1 RES     
    2078 C0         -28.0324    -1.6237    18.0291 C0            1 RES     
    2079 C0         -28.9650    -0.3162    18.1522 C0            1 RES     
    2080 C0         -30.0222    -0.1115    17.0217 C0            1 RES     
    2081 C0         -31.4482    -0.0344    17.5990 C0            1 RES     
    2082 C0         -32.5602    -0.0212    16.5346 C0            1 RES     
    2083 C0         -33.9253     0.1715    17.2223 C0            1 RES     
    2084 C0         -35.1095    -0.0024    16.2632 C0            1 RES     
    2085 C0         -36.4328     0.2358    16.9943 C0            1 RES     
    2086 C0         -27.9430     0.9060    18.1764 C0            1 RES     
    2087 C0         -28.2917     2.4246    18.2703 C0            1 RES     
    2088 C0         -28.6692     3.1615    16.9486 C0            1 RES     
    2089 C0         -28.2832     4.6717    17.0051 C0            1 RES     
    2090 C0         -28.5387     5.4265    15.6840 C0            1 RES     
    2091 C0         -27.7272     6.7400    15.5363 C0            1 RES     
    2092 C0         -27.9612     7.7920    16.6302 C0            1 RES     
    2093 C0         -27.1390     9.0571    16.3487 C0            1 RES     
    2094 C0         -27.0145    -3.4058    16.6206 C0            1 RES     
    2095 C0         -25.4509    -2.9159    16.5803 C0            1 RES     
    2096 C0         -25.2858    -1.3497    16.7245 C0            1 RES     
    2097 C0         -23.9439    -0.7076    16.3879 C0            1 RES     
    2098 C0         -23.9250     0.8315    16.3988 C0            1 RES     
    2099 C0         -23.9911     1.4279    17.8202 C0            1 RES     
    2100 C0         -23.4593     2.8717    17.8706 C0            1 RES     
    2101 C0         -24.3187     3.8703    17.1147 C0            1 RES     
    2102 C0         -24.3354    -3.7415    17.3693 C0            1 RES     
    2103 C0         -22.9552    -3.7291    16.6084 C0            1 RES     
    2104 C0         -21.7213    -4.5738    17.0299 C0            1 RES     
    2105 C0         -20.7192    -3.9870    18.0774 C0            1 RES     
    2106 C0         -19.2838    -4.4870    17.7242 C0            1 RES     
    2107 C0         -18.1212    -4.0056    18.6191 C0            1 RES     
    2108 C0         -16.7752    -4.3920    17.9557 C0            1 RES     
    2109 C0         -15.5513    -4.0145    18.7888 C0            1 RES     
    2110 H4         -26.1857    -5.4781    18.4299 H4            1 RES     
    2111 H5         -25.2168    -7.3946    18.5860 H5            1 RES     
    2112 H4         -29.8544    -2.7878    15.4512 H4            1 RES     
    2113 H6         -27.3502    -1.5227    18.9002 H6            1 RES     
    2114 H6         -27.6234    -1.2593    17.1084 H6            1 RES     
    2115 H6         -29.4837    -0.3415    19.1358 H6            1 RES     
    2116 H6         -29.8315     0.8057    16.4362 H6            1 RES     
    2117 H6         -29.9346    -0.8863    16.2689 H6            1 RES     
    2118 H6         -31.6248    -0.9207    18.2475 H6            1 RES     
    2119 H6         -31.5140     0.8852    18.2215 H6            1 RES     
    2120 H6         -32.4027     0.7992    15.8002 H6            1 RES     
    2121 H6         -32.5402    -0.9932    15.9938 H6            1 RES     
    2122 H6         -33.9547     1.1900    17.6704 H6            1 RES     
    2123 H6         -34.0368    -0.5775    18.0366 H6            1 RES     
    2124 H6         -35.0331     0.7107    15.4147 H6            1 RES     
    2125 H6         -35.1048    -1.0397    15.8622 H6            1 RES     
    2126 H6         -36.5339    -0.4592    17.8559 H6            1 RES     
    2127 H6         -36.4832     1.2812    17.3682 H6            1 RES     
    2128 H6         -37.2852     0.0659    16.3035 H6            1 RES     
    2129 H6         -27.3102     0.7127    19.0703 H6            1 RES     
    2130 H6         -27.2713     0.8388    17.2917 H6            1 RES     
    2131 H6         -28.9844     2.6633    19.1023 H6            1 RES     
    2132 H6         -27.3073     2.8639    18.5480 H6            1 RES     
    2133 H6         -28.0645     2.7309    16.1186 H6            1 RES     
    2134 H6         -29.7444     3.0291    16.7117 H6            1 RES     
    2135 H6         -28.7918     5.1932    17.8433 H6            1 RES     
    2136 H6         -27.1991     4.7242    17.1862 H6            1 RES     
    2137 H6         -28.2077     4.7894    14.8348 H6            1 RES     
    2138 H6         -29.6274     5.6135    15.5681 H6            1 RES     
    2139 H6         -27.9821     7.1883    14.5505 H6            1 RES     
    2140 H6         -26.6428     6.4890    15.5208 H6            1 RES     
    2141 H6         -27.6491     7.3842    17.6148 H6            1 RES     
    2142 H6         -29.0360     8.0653    16.6717 H6            1 RES     
    2143 H6         -27.4445     9.5140    15.3826 H6            1 RES     
    2144 H6         -26.0535     8.8212    16.3038 H6            1 RES     
    2145 H6         -27.3006     9.8040    17.1548 H6            1 RES     
    2146 H6         -27.0193    -4.4856    16.3544 H6            1 RES     
    2147 H6         -27.4604    -2.9041    15.7314 H6            1 RES     
    2148 H6         -25.2204    -3.1397    15.5162 H6            1 RES     
    2149 H6         -25.5183    -1.0420    17.7616 H6            1 RES     
    2150 H6         -25.9738    -0.8878    15.9844 H6            1 RES     
    2151 H6         -23.1894    -1.0024    17.1384 H6            1 RES     
    2152 H6         -23.6677    -1.0380    15.3631 H6            1 RES     
    2153 H6         -22.9353     1.1055    15.9757 H6            1 RES     
    2154 H6         -24.7094     1.2589    15.7352 H6            1 RES     
    2155 H6         -23.3097     0.8471    18.4772 H6            1 RES     
    2156 H6         -25.0156     1.3524    18.2416 H6            1 RES     
    2157 H6         -22.4269     2.8941    17.4589 H6            1 RES     
    2158 H6         -23.4101     3.1976    18.9322 H6            1 RES     
    2159 H6         -23.8633     4.8814    17.1862 H6            1 RES     
    2160 H6         -25.3075     3.8937    17.5944 H6            1 RES     
    2161 H6         -24.4165     3.6027    16.0427 H6            1 RES     
    2162 H6         -24.2708    -3.4275    18.4342 H6            1 RES     
    2163 H6         -24.5964    -4.8112    17.3228 H6            1 RES     
    2164 H6         -23.2169    -4.1161    15.6000 H6            1 RES     
    2165 H6         -22.5323    -2.7462    16.4296 H6            1 RES     
    2166 H6         -21.1454    -4.5717    16.0771 H6            1 RES     
    2167 H6         -21.9616    -5.6384    17.2302 H6            1 RES     
    2168 H6         -21.0267    -4.2569    19.1110 H6            1 RES     
    2169 H6         -20.6862    -2.8784    17.9981 H6            1 RES     
    2170 H6         -19.0646    -4.1081    16.7001 H6            1 RES     
    2171 H6         -19.2659    -5.5977    17.6959 H6            1 RES     
    2172 H6         -18.2065    -4.4727    19.6239 H6            1 RES     
    2173 H6         -18.1491    -2.8998    18.7307 H6            1 RES     
    2174 H6         -16.6933    -3.8715    16.9748 H6            1 RES     
    2175 H6         -16.7414    -5.4876    17.7717 H6            1 RES     
    2176 H6         -15.5530    -4.5652    19.7522 H6            1 RES     
    2177 H6         -15.5236    -2.9219    18.9821 H6            1 RES     
    2178 H6         -14.6288    -4.2927    18.2308 H6            1 RES     
    2179 C0         -36.1347    -4.7606     8.5818 C0            1 RES     
    2180 C1         -36.6982    -5.9342     8.9988 C1            1 RES     
    2181 C1         -37.3688    -5.8229    10.1628 C1            1 RES     
    2182 C1         -37.2724    -4.6281    10.6565 C1            1 RES     
    2183 C1         -36.4427    -3.7789     9.7839 C1            1 RES     
    2184 C1         -35.3462    -3.5686    10.8173 C1            1 RES     
    2185 C1         -35.6554    -3.8443    12.1179 C1            1 RES     
    2186 S2         -37.4168    -4.2508    12.3682 S2            1 RES     
    2187 C1         -34.6249    -3.8730    13.2392 C1            1 RES     
    2188 C1         -33.3359    -3.2854    13.0755 C1            1 RES     
    2189 N3         -32.3980    -3.3277    14.0658 N3            1 RES     
    2190 C1         -32.6120    -3.9406    15.2515 C1            1 RES     
    2191 C1         -33.8373    -4.5552    15.4769 C1            1 RES     
    2192 C1         -34.8530    -4.5172    14.4736 C1            1 RES     
    2193 N3         -36.0046    -5.1652    14.8076 N3            1 RES     
    2194 S2         -35.6796    -5.7321    16.3300 S2            1 RES     
    2195 N3         -34.1384    -5.2151    16.6218 N3            1 RES     
    2196 S2         -37.9535    -7.2790    10.7449 S2            1 RES     
    2197 C1         -37.3324    -8.1374     9.4240 C1            1 RES     
    2198 C1         -36.6335    -7.2717     8.5738 C1            1 RES     
    2199 C0         -36.8278    -4.3873     7.1837 C0            1 RES     
    2200 C0         -38.0371    -4.7800     6.1948 C0            1 RES     
    2201 C0         -38.1583    -6.2897     5.8157 C0            1 RES     
    2202 C0         -39.5372    -6.8540     6.2072 C0            1 RES     
    2203 C0         -39.6666    -8.3784     6.0374 C0            1 RES     
    2204 C0         -41.1131    -8.8076     6.3489 C0            1 RES     
    2205 C0         -41.2886   -10.3304     6.4007 C0            1 RES     
    2206 C0         -42.7493   -10.6940     6.6773 C0            1 RES     
    2207 C0         -37.7884    -3.9036     4.8876 C0            1 RES     
    2208 C0         -38.6496    -3.8874     3.5857 C0            1 RES     
    2209 C0         -38.3750    -4.9969     2.5247 C0            1 RES     
    2210 C0         -38.6968    -4.5008     1.0815 C0            1 RES     
    2211 C0         -38.3438    -5.5235    -0.0185 C0            1 RES     
    2212 C0         -38.1706    -4.9035    -1.4295 C0            1 RES     
    2213 C0         -39.3926    -4.1543    -1.9807 C0            1 RES     
    2214 C0         -39.1119    -3.6282    -3.3949 C0            1 RES     
    2215 C0         -34.5960    -4.9105     8.1539 C0            1 RES     
    2216 C0         -33.6593    -3.7977     7.3984 C0            1 RES     
    2217 C0         -34.2099    -3.3846     5.9746 C0            1 RES     
    2218 C0         -33.3025    -2.6169     5.0187 C0            1 RES     
    2219 C0         -33.8636    -2.4032     3.6013 C0            1 RES     
    2220 C0         -35.0010    -1.3620     3.5508 C0            1 RES     
    2221 C0         -35.1927    -0.7777     2.1394 C0            1 RES     
    2222 C0         -35.6980    -1.7845     1.1206 C0            1 RES     
    2223 C0         -33.0590    -2.5687     8.2217 C0            1 RES     
    2224 C0         -31.6328    -2.1555     7.6934 C0            1 RES     
    2225 C0         -30.7174    -1.1089     8.3864 C0            1 RES     
    2226 C0         -30.8756     0.4029     8.0184 C0            1 RES     
    2227 C0         -29.4717     1.0802     8.0913 C0            1 RES     
    2228 C0         -29.3853     2.5809     7.7383 C0            1 RES     
    2229 C0         -27.8957     2.9899     7.6171 C0            1 RES     
    2230 C0         -27.6903     4.4760     7.3272 C0            1 RES     
    2231 H4         -34.3617    -3.3093    10.5279 H4            1 RES     
    2232 H5         -33.0736    -2.7689    12.1665 H5            1 RES     
    2233 H4         -36.0916    -7.6276     7.7120 H4            1 RES     
    2234 H6         -36.9222    -3.2830     7.2621 H6            1 RES     
    2235 H6         -36.1120    -4.7147     6.4569 H6            1 RES     
    2236 H6         -38.9931    -4.4411     6.6511 H6            1 RES     
    2237 H6         -38.0045    -6.4600     4.7351 H6            1 RES     
    2238 H6         -37.3500    -6.8623     6.2554 H6            1 RES     
    2239 H6         -39.7312    -6.6252     7.2783 H6            1 RES     
    2240 H6         -40.3038    -6.3409     5.5855 H6            1 RES     
    2241 H6         -39.4089    -8.6898     5.0010 H6            1 RES     
    2242 H6         -38.9628    -8.8716     6.7437 H6            1 RES     
    2243 H6         -41.7839    -8.3812     5.5695 H6            1 RES     
    2244 H6         -41.4139    -8.3987     7.3381 H6            1 RES     
    2245 H6         -40.9780   -10.7925     5.4392 H6            1 RES     
    2246 H6         -40.6570   -10.7427     7.2180 H6            1 RES     
    2247 H6         -43.0917   -10.2374     7.6312 H6            1 RES     
    2248 H6         -43.3991   -10.3316     5.8519 H6            1 RES     
    2249 H6         -42.8588   -11.7961     6.7557 H6            1 RES     
    2250 H6         -37.8229    -2.8542     5.2541 H6            1 RES     
    2251 H6         -36.7519    -4.0780     4.5218 H6            1 RES     
    2252 H6         -39.7316    -3.7434     3.7794 H6            1 RES     
    2253 H6         -38.2940    -2.9545     3.0933 H6            1 RES     
    2254 H6         -37.2849    -5.2242     2.5249 H6            1 RES     
    2255 H6         -38.9322    -5.9249     2.7653 H6            1 RES     
    2256 H6         -39.7582    -4.1899     0.9825 H6            1 RES     
    2257 H6         -38.0696    -3.6164     0.8937 H6            1 RES     
    2258 H6         -37.3571    -5.9794     0.2162 H6            1 RES     
    2259 H6         -39.1025    -6.3346    -0.0282 H6            1 RES     
    2260 H6         -37.9097    -5.7254    -2.1326 H6            1 RES     
    2261 H6         -37.3108    -4.1969    -1.4051 H6            1 RES     
    2262 H6         -39.6276    -3.2887    -1.3260 H6            1 RES     
    2263 H6         -40.2698    -4.8330    -2.0185 H6            1 RES     
    2264 H6         -38.9017    -4.4700    -4.0897 H6            1 RES     
    2265 H6         -38.2388    -2.9399    -3.3947 H6            1 RES     
    2266 H6         -39.9944    -3.0722    -3.7770 H6            1 RES     
    2267 H6         -34.0381    -5.2387     9.0582 H6            1 RES     
    2268 H6         -34.5475    -5.7888     7.4703 H6            1 RES     
    2269 H6         -32.7634    -4.4242     7.1975 H6            1 RES     
    2270 H6         -35.1215    -2.7681     6.0893 H6            1 RES     
    2271 H6         -34.4072    -4.3291     5.4236 H6            1 RES     
    2272 H6         -33.1267    -1.5982     5.4069 H6            1 RES     
    2273 H6         -32.3596    -3.1973     4.9209 H6            1 RES     
    2274 H6         -33.0137    -1.9865     3.0203 H6            1 RES     
    2275 H6         -34.1626    -3.3640     3.1262 H6            1 RES     
    2276 H6         -34.7134    -0.4961     4.1840 H6            1 RES     
    2277 H6         -35.9474    -1.7790     3.9549 H6            1 RES     
    2278 H6         -34.2271    -0.3549     1.7861 H6            1 RES     
    2279 H6         -35.9292     0.0530     2.1935 H6            1 RES     
    2280 H6         -35.7964    -1.2923     0.1292 H6            1 RES     
    2281 H6         -36.6917    -2.1230     1.4469 H6            1 RES     
    2282 H6         -35.0106    -2.6491     1.0183 H6            1 RES     
    2283 H6         -33.7824    -1.7264     8.2849 H6            1 RES     
    2284 H6         -32.8185    -2.9161     9.2395 H6            1 RES     
    2285 H6         -31.0548    -3.1029     7.7533 H6            1 RES     
    2286 H6         -31.5900    -1.8676     6.6484 H6            1 RES     
    2287 H6         -29.7317    -1.3893     7.9514 H6            1 RES     
    2288 H6         -30.6155    -1.2656     9.4802 H6            1 RES     
    2289 H6         -31.6245     0.8927     8.6779 H6            1 RES     
    2290 H6         -31.2127     0.5080     6.9641 H6            1 RES     
    2291 H6         -28.8305     0.5499     7.3511 H6            1 RES     
    2292 H6         -29.0323     0.9332     9.1014 H6            1 RES     
    2293 H6         -29.8886     3.1790     8.5283 H6            1 RES     
    2294 H6         -29.8810     2.7796     6.7632 H6            1 RES     
    2295 H6         -27.4291     2.4132     6.7867 H6            1 RES     
    2296 H6         -27.3552     2.7449     8.5569 H6            1 RES     
    2297 H6         -28.0790     5.0918     8.1645 H6            1 RES     
    2298 H6         -28.1923     4.7696     6.3819 H6            1 RES     
    2299 H6         -26.6010     4.6809     7.2211 H6            1 RES     
    2300 C0         -35.5419   -17.1049     8.3444 C0            1 RES     
    2301 C1         -35.7586   -17.3443     9.6727 C1            1 RES     
    2302 C1         -36.9817   -16.9647    10.0932 C1            1 RES     
    2303 C1         -37.6575   -16.3968     9.1438 C1            1 RES     
    2304 C1         -36.8561   -16.3386     7.9089 C1            1 RES     
    2305 C1         -36.8008   -14.8190     7.8652 C1            1 RES     
    2306 C1         -37.7124   -14.1409     8.6217 C1            1 RES     
    2307 S2         -38.9468   -15.2303     9.4090 S2            1 RES     
    2308 C1         -37.6691   -12.6342     8.8405 C1            1 RES     
    2309 C1         -36.8846   -11.7867     8.0039 C1            1 RES     
    2310 N3         -36.8206   -10.4388     8.2076 N3            1 RES     
    2311 C1         -37.4710    -9.8191     9.2177 C1            1 RES     
    2312 C1         -38.2388   -10.5821    10.0886 C1            1 RES     
    2313 C1         -38.3476   -11.9934     9.8988 C1            1 RES     
    2314 N3         -39.1181   -12.6323    10.8239 N3            1 RES     
    2315 S2         -39.6151   -11.3947    11.8067 S2            1 RES     
    2316 N3         -38.9076   -10.0575    11.1441 N3            1 RES     
    2317 S2         -37.2102   -17.1366    11.7422 S2            1 RES     
    2318 C1         -35.6500   -17.7558    11.9653 C1            1 RES     
    2319 C1         -34.9597   -17.7699    10.7471 C1            1 RES     
    2320 C0         -35.3070   -18.5325     7.6507 C0            1 RES     
    2321 C0         -35.4010   -20.1213     7.8986 C0            1 RES     
    2322 C0         -34.6967   -20.6642     9.1818 C0            1 RES     
    2323 C0         -35.6921   -21.4086    10.0917 C0            1 RES     
    2324 C0         -35.1163   -21.8100    11.4617 C0            1 RES     
    2325 C0         -36.1598   -22.6412    12.2323 C0            1 RES     
    2326 C0         -35.7527   -22.9164    13.6852 C0            1 RES     
    2327 C0         -36.8089   -23.7740    14.3862 C0            1 RES     
    2328 C0         -34.7491   -20.7706     6.5977 C0            1 RES     
    2329 C0         -34.5589   -22.2905     6.2971 C0            1 RES     
    2330 C0         -33.3075   -22.9954     6.9049 C0            1 RES     
    2331 C0         -32.8306   -24.1833     6.0137 C0            1 RES     
    2332 C0         -31.5327   -24.8510     6.5136 C0            1 RES     
    2333 C0         -30.7753   -25.6584     5.4273 C0            1 RES     
    2334 C0         -31.5676   -26.8011     4.7757 C0            1 RES     
    2335 C0         -30.6986   -27.5484     3.7549 C0            1 RES     
    2336 C0         -34.1492   -16.3655     8.0501 C0            1 RES     
    2337 C0         -33.4419   -16.1170     6.5925 C0            1 RES     
    2338 C0         -33.1062   -17.4595     5.8270 C0            1 RES     
    2339 C0         -32.1693   -17.4172     4.6242 C0            1 RES     
    2340 C0         -31.7714   -18.7874     4.0464 C0            1 RES     
    2341 C0         -32.9191   -19.4785     3.2814 C0            1 RES     
    2342 C0         -32.4034   -20.5427     2.2958 C0            1 RES     
    2343 C0         -31.7608   -21.7435     2.9683 C0            1 RES     
    2344 C0         -33.9803   -14.9621     5.6309 C0            1 RES     
    2345 C0         -32.8121   -14.3012     4.8046 C0            1 RES     
    2346 C0         -32.9832   -13.0442     3.9077 C0            1 RES     
    2347 C0         -33.4256   -13.2261     2.4187 C0            1 RES     
    2348 C0         -32.7390   -12.1195     1.5590 C0            1 RES     
    2349 C0         -33.0157   -12.1232     0.0399 C0            1 RES     
    2350 C0         -32.0513   -11.1292    -0.6549 C0            1 RES     
    2351 C0         -32.2780   -11.0075    -2.1611 C0            1 RES     
    2352 H4         -36.0311   -14.3124     7.3444 H4            1 RES     
    2353 H5         -36.3347   -12.1881     7.1683 H5            1 RES     
    2354 H4         -33.9215   -18.0539    10.6792 H4            1 RES     
    2355 H6         -35.8282   -18.4036     6.6780 H6            1 RES     
    2356 H6         -34.2406   -18.5967     7.5705 H6            1 RES     
    2357 H6         -36.4738   -20.4143     7.9202 H6            1 RES     
    2358 H6         -33.8640   -21.3488     8.9402 H6            1 RES     
    2359 H6         -34.1902   -19.8645     9.7096 H6            1 RES     
    2360 H6         -36.5686   -20.7512    10.2837 H6            1 RES     
    2361 H6         -36.0359   -22.3166     9.5488 H6            1 RES     
    2362 H6         -34.1862   -22.4090    11.3459 H6            1 RES     
    2363 H6         -34.8756   -20.8826    12.0270 H6            1 RES     
    2364 H6         -36.3080   -23.6061    11.6974 H6            1 RES     
    2365 H6         -37.1272   -22.0933    12.2502 H6            1 RES     
    2366 H6         -34.7759   -23.4444    13.7241 H6            1 RES     
    2367 H6         -35.6603   -21.9498    14.2275 H6            1 RES     
    2368 H6         -37.8012   -23.2740    14.3558 H6            1 RES     
    2369 H6         -36.8906   -24.7653    13.8906 H6            1 RES     
    2370 H6         -36.5271   -23.9319    15.4485 H6            1 RES     
    2371 H6         -35.3848   -20.4019     5.7630 H6            1 RES     
    2372 H6         -33.7363   -20.3369     6.4407 H6            1 RES     
    2373 H6         -35.4868   -22.8820     6.4319 H6            1 RES     
    2374 H6         -34.3525   -22.2786     5.2033 H6            1 RES     
    2375 H6         -32.4621   -22.2707     6.9118 H6            1 RES     
    2376 H6         -33.5022   -23.3253     7.9455 H6            1 RES     
    2377 H6         -33.6264   -24.9480     5.8907 H6            1 RES     
    2378 H6         -32.6034   -23.7729     5.0184 H6            1 RES     
    2379 H6         -30.8189   -24.0593     6.8305 H6            1 RES     
    2380 H6         -31.7578   -25.4836     7.3983 H6            1 RES     
    2381 H6         -29.8590   -26.0819     5.8952 H6            1 RES     
    2382 H6         -30.4500   -24.9586     4.6252 H6            1 RES     
    2383 H6         -32.4524   -26.3888     4.2461 H6            1 RES     
    2384 H6         -31.9072   -27.5191     5.5508 H6            1 RES     
    2385 H6         -29.8154   -28.0035     4.2534 H6            1 RES     
    2386 H6         -30.3424   -26.8589     2.9588 H6            1 RES     
    2387 H6         -31.2861   -28.3604     3.2760 H6            1 RES     
    2388 H6         -34.1926   -15.3772     8.5583 H6            1 RES     
    2389 H6         -33.3724   -16.9289     8.6161 H6            1 RES     
    2390 H6         -32.4617   -15.7197     6.9344 H6            1 RES     
    2391 H6         -34.0408   -17.9303     5.4678 H6            1 RES     
    2392 H6         -32.5581   -18.1065     6.5449 H6            1 RES     
    2393 H6         -32.6600   -16.8916     3.7861 H6            1 RES     
    2394 H6         -31.2364   -16.9082     4.9500 H6            1 RES     
    2395 H6         -30.9750   -18.5618     3.3058 H6            1 RES     
    2396 H6         -31.3348   -19.4526     4.8243 H6            1 RES     
    2397 H6         -33.4256   -18.7204     2.6472 H6            1 RES     
    2398 H6         -33.6744   -19.8967     3.9797 H6            1 RES     
    2399 H6         -31.6680   -20.0744     1.6060 H6            1 RES     
    2400 H6         -33.2575   -20.9089     1.6860 H6            1 RES     
    2401 H6         -31.4033   -22.4558     2.1938 H6            1 RES     
    2402 H6         -32.5303   -22.2400     3.5763 H6            1 RES     
    2403 H6         -30.8989   -21.4499     3.6018 H6            1 RES     
    2404 H6         -34.8351   -15.3111     5.0111 H6            1 RES     
    2405 H6         -34.3079   -14.1146     6.2546 H6            1 RES     
    2406 H6         -32.0956   -13.9781     5.5902 H6            1 RES     
    2407 H6         -32.2479   -14.9798     4.1737 H6            1 RES     
    2408 H6         -31.9244   -12.7082     3.8340 H6            1 RES     
    2409 H6         -33.5247   -12.2145     4.4076 H6            1 RES     
    2410 H6         -34.5338   -13.2124     2.3325 H6            1 RES     
    2411 H6         -33.0537   -14.1966     2.0236 H6            1 RES     
    2412 H6         -31.6417   -12.2701     1.6750 H6            1 RES     
    2413 H6         -32.9970   -11.1151     1.9586 H6            1 RES     
    2414 H6         -34.0722   -11.8333    -0.1470 H6            1 RES     
    2415 H6         -32.8376   -13.1350    -0.3848 H6            1 RES     
    2416 H6         -31.0035   -11.4705    -0.4947 H6            1 RES     
    2417 H6         -32.1593   -10.1173    -0.2080 H6            1 RES     
    2418 H6         -33.2899   -10.6026    -2.3695 H6            1 RES     
    2419 H6         -32.1576   -11.9906    -2.6619 H6            1 RES     
    2420 H6         -31.5274   -10.3049    -2.5885 H6            1 RES     
    2421 C0         -30.4304   -18.4115    19.5226 C0            1 RES     
    2422 C1         -31.3077   -17.6453    20.2381 C1            1 RES     
    2423 C1         -32.5601   -18.1432    20.2596 C1            1 RES     
    2424 C1         -32.6599   -19.2149    19.5371 C1            1 RES     
    2425 C1         -31.3643   -19.5334    18.9119 C1            1 RES     
    2426 C1         -31.8593   -19.3358    17.4870 C1            1 RES     
    2427 C1         -33.2100   -19.3418    17.2908 C1            1 RES     
    2428 S2         -34.1534   -19.7705    18.7930 S2            1 RES     
    2429 C1         -33.8695   -18.9673    15.9699 C1            1 RES     
    2430 C1         -33.1210   -18.9150    14.7572 C1            1 RES     
    2431 N3         -33.6981   -18.5568    13.5736 N3            1 RES     
    2432 C1         -35.0003   -18.2092    13.4694 C1            1 RES     
    2433 C1         -35.7892   -18.2150    14.6129 C1            1 RES     
    2434 C1         -35.2285   -18.6021    15.8680 C1            1 RES     
    2435 N3         -36.0985   -18.5557    16.9162 N3            1 RES     
    2436 S2         -37.5045   -18.0440    16.2051 S2            1 RES     
    2437 N3         -37.0971   -17.8596    14.6152 N3            1 RES     
    2438 S2         -33.6672   -17.1482    21.0248 S2            1 RES     
    2439 C1         -32.4854   -15.9892    21.3816 C1            1 RES     
    2440 C1         -31.2511   -16.3816    20.8495 C1            1 RES     
    2441 C0         -29.3146   -18.9221    20.5564 C0            1 RES     
    2442 C0         -28.9463   -19.0096    22.1221 C0            1 RES     
    2443 C0         -29.0406   -17.6773    22.9306 C0            1 RES     
    2444 C0         -30.0194   -17.8103    24.1126 C0            1 RES     
    2445 C0         -30.3088   -16.4872    24.8442 C0            1 RES     
    2446 C0         -31.2038   -16.7635    26.0674 C0            1 RES     
    2447 C0         -31.7085   -15.4821    26.7426 C0            1 RES     
    2448 C0         -32.5600   -15.8199    27.9686 C0            1 RES     
    2449 C0         -27.4540   -19.5670    22.1538 C0            1 RES     
    2450 C0         -26.5764   -19.8402    23.4155 C0            1 RES     
    2451 C0         -25.8145   -18.6312    24.0402 C0            1 RES     
    2452 C0         -24.4970   -19.0853    24.7408 C0            1 RES     
    2453 C0         -23.6502   -17.9164    25.2857 C0            1 RES     
    2454 C0         -22.1574   -18.2679    25.5168 C0            1 RES     
    2455 C0         -21.8903   -19.4225    26.4934 C0            1 RES     
    2456 C0         -20.3818   -19.6428    26.6709 C0            1 RES     
    2457 C0         -29.5494   -17.5663    18.4821 C0            1 RES     
    2458 C0         -28.2534   -18.0845    17.6230 C0            1 RES     
    2459 C0         -27.0545   -18.5660    18.5351 C0            1 RES     
    2460 C0         -25.6781   -18.7701    17.9103 C0            1 RES     
    2461 C0         -24.5406   -19.0783    18.9006 C0            1 RES     
    2462 C0         -24.6188   -20.5026    19.4886 C0            1 RES     
    2463 C0         -23.2619   -20.9815    20.0356 C0            1 RES     
    2464 C0         -22.7823   -20.2092    21.2524 C0            1 RES     
    2465 C0         -28.4659   -18.9965    16.3301 C0            1 RES     
    2466 C0         -27.3869   -18.6952    15.2216 C0            1 RES     
    2467 C0         -27.4202   -19.2945    13.7886 C0            1 RES     
    2468 C0         -26.7495   -20.6832    13.5287 C0            1 RES     
    2469 C0         -26.1509   -20.6824    12.0876 C0            1 RES     
    2470 C0         -25.4116   -21.9558    11.6224 C0            1 RES     
    2471 C0         -24.6783   -21.6599    10.2899 C0            1 RES     
    2472 C0         -23.9584   -22.8738     9.7044 C0            1 RES     
    2473 H4         -31.1890   -19.1116    16.6992 H4            1 RES     
    2474 H5         -32.0765   -19.1804    14.7387 H5            1 RES     
    2475 H4         -30.3793   -15.7483    20.8948 H4            1 RES     
    2476 H6         -29.1301   -19.9586    20.2016 H6            1 RES     
    2477 H6         -28.4966   -18.2505    20.3900 H6            1 RES     
    2478 H6         -29.6012   -19.7720    22.5986 H6            1 RES     
    2479 H6         -28.0582   -17.3599    23.3237 H6            1 RES     
    2480 H6         -29.3050   -16.8514    22.2805 H6            1 RES     
    2481 H6         -30.9920   -18.1966    23.7356 H6            1 RES     
    2482 H6         -29.5920   -18.5482    24.8269 H6            1 RES     
    2483 H6         -29.3670   -16.0022    25.1835 H6            1 RES     
    2484 H6         -30.8291   -15.8022    24.1388 H6            1 RES     
    2485 H6         -30.6237   -17.3677    26.8006 H6            1 RES     
    2486 H6         -32.0928   -17.3503    25.7486 H6            1 RES     
    2487 H6         -30.8550   -14.8458    27.0608 H6            1 RES     
    2488 H6         -32.3327   -14.9110    26.0207 H6            1 RES     
    2489 H6         -33.4191   -16.4645    27.6820 H6            1 RES     
    2490 H6         -31.9477   -16.3536    28.7271 H6            1 RES     
    2491 H6         -32.9560   -14.8887    28.4253 H6            1 RES     
    2492 H6         -27.5225   -20.5544    21.6466 H6            1 RES     
    2493 H6         -26.8099   -18.9249    21.5124 H6            1 RES     
    2494 H6         -27.0892   -20.4593    24.1788 H6            1 RES     
    2495 H6         -25.7661   -20.4750    22.9917 H6            1 RES     
    2496 H6         -25.4952   -17.9515    23.2181 H6            1 RES     
    2497 H6         -26.4668   -18.0660    24.7365 H6            1 RES     
    2498 H6         -24.6957   -19.8184    25.5508 H6            1 RES     
    2499 H6         -23.8794   -19.5857    23.9798 H6            1 RES     
    2500 H6         -23.6376   -17.0984    24.5324 H6            1 RES     
    2501 H6         -24.1166   -17.5211    26.2130 H6            1 RES     
    2502 H6         -21.6478   -17.3548    25.8968 H6            1 RES     
    2503 H6         -21.6965   -18.5268    24.5372 H6            1 RES     
    2504 H6         -22.3360   -20.3591    26.0968 H6            1 RES     
    2505 H6         -22.3379   -19.1951    27.4831 H6            1 RES     
    2506 H6         -19.9023   -18.7347    27.0966 H6            1 RES     
    2507 H6         -19.8991   -19.8772    25.6972 H6            1 RES     
    2508 H6         -20.1993   -20.4914    27.3640 H6            1 RES     
    2509 H6         -30.2557   -17.1106    17.7539 H6            1 RES     
    2510 H6         -29.1458   -16.6973    19.0505 H6            1 RES     
    2511 H6         -27.9244   -17.1141    17.1920 H6            1 RES     
    2512 H6         -27.3138   -19.5264    19.0194 H6            1 RES     
    2513 H6         -26.8730   -17.7572    19.2749 H6            1 RES     
    2514 H6         -25.7011   -19.6400    17.2305 H6            1 RES     
    2515 H6         -25.4137   -17.8298    17.3798 H6            1 RES     
    2516 H6         -23.6134   -19.0273    18.2914 H6            1 RES     
    2517 H6         -24.4671   -18.3061    19.6985 H6            1 RES     
    2518 H6         -24.8636   -21.2090    18.6674 H6            1 RES     
    2519 H6         -25.4204   -20.5795    20.2531 H6            1 RES     
    2520 H6         -22.4979   -20.9060    19.2315 H6            1 RES     
    2521 H6         -23.3500   -22.0517    20.3228 H6            1 RES     
    2522 H6         -21.7952   -20.6030    21.5770 H6            1 RES     
    2523 H6         -23.5097   -20.3701    22.0608 H6            1 RES     
    2524 H6         -22.6767   -19.1259    21.0387 H6            1 RES     
    2525 H6         -28.5547   -20.0721    16.5982 H6            1 RES     
    2526 H6         -29.3897   -18.6725    15.8239 H6            1 RES     
    2527 H6         -27.4869   -17.6002    15.0597 H6            1 RES     
    2528 H6         -26.3556   -18.8396    15.5258 H6            1 RES     
    2529 H6         -26.7590   -18.5735    13.2572 H6            1 RES     
    2530 H6         -28.4109   -19.2086    13.2961 H6            1 RES     
    2531 H6         -27.4761   -21.5085    13.6924 H6            1 RES     
    2532 H6         -25.8896   -20.8293    14.2182 H6            1 RES     
    2533 H6         -25.3996   -19.8607    12.0622 H6            1 RES     
    2534 H6         -26.9463   -20.4502    11.3472 H6            1 RES     
    2535 H6         -26.1422   -22.7824    11.4877 H6            1 RES     
    2536 H6         -24.6538   -22.2620    12.3759 H6            1 RES     
    2537 H6         -23.9186   -20.8648    10.4644 H6            1 RES     
    2538 H6         -25.4009   -21.2894     9.5309 H6            1 RES     
    2539 H6         -24.6871   -23.6705     9.4481 H6            1 RES     
    2540 H6         -23.2048   -23.2705    10.4161 H6            1 RES     
    2541 H6         -23.4310   -22.5716     8.7715 H6            1 RES     
    2542 C0         -33.2286    -7.0841    23.6027 C0            1 RES     
    2543 C1         -34.5628    -7.0846    23.3049 C1            1 RES     
    2544 C1         -35.2675    -7.9968    24.0035 C1            1 RES     
    2545 C1         -34.4992    -8.7145    24.7618 C1            1 RES     
    2546 C1         -33.0932    -8.3047    24.6005 C1            1 RES     
    2547 C1         -32.6385    -9.6365    24.0228 C1            1 RES     
    2548 C1         -33.4599   -10.7101    24.2121 C1            1 RES     
    2549 S2         -34.8819   -10.3458    25.2963 S2            1 RES     
    2550 C1         -33.2491   -12.0593    23.5375 C1            1 RES     
    2551 C1         -32.0020   -12.3993    22.9352 C1            1 RES     
    2552 N3         -31.8119   -13.5959    22.3073 N3            1 RES     
    2553 C1         -32.7861   -14.5261    22.1933 C1            1 RES     
    2554 C1         -34.0362   -14.2576    22.7367 C1            1 RES     
    2555 C1         -34.2711   -13.0249    23.4187 C1            1 RES     
    2556 N3         -35.5385   -12.8736    23.8964 N3            1 RES     
    2557 S2         -36.2739   -14.2872    23.4429 S2            1 RES     
    2558 N3         -35.0826   -15.1148    22.6531 N3            1 RES     
    2559 S2         -36.8770    -8.0920    23.5547 S2            1 RES     
    2560 C1         -36.6973    -6.8762    22.3898 C1            1 RES     
    2561 C1         -35.3639    -6.4517    22.3397 C1            1 RES     
    2562 C0         -32.8943    -5.6410    24.2196 C0            1 RES     
    2563 C0         -33.5644    -4.2827    24.7677 C0            1 RES     
    2564 C0         -34.6171    -3.6052    23.8348 C0            1 RES     
    2565 C0         -35.9766    -3.4563    24.5437 C0            1 RES     
    2566 C0         -37.1152    -2.9693    23.6293 C0            1 RES     
    2567 C0         -38.3885    -2.7512    24.4687 C0            1 RES     
    2568 C0         -39.6275    -2.4584    23.6134 C0            1 RES     
    2569 C0         -40.8494    -2.2159    24.5024 C0            1 RES     
    2570 C0         -32.3355    -3.2991    25.0147 C0            1 RES     
    2571 C0         -32.3949    -1.8286    25.5352 C0            1 RES     
    2572 C0         -32.6912    -0.7060    24.4940 C0            1 RES     
    2573 C0         -32.0325     0.6461    24.9073 C0            1 RES     
    2574 C0         -32.2058     1.7656    23.8598 C0            1 RES     
    2575 C0         -31.1748     2.9174    23.9854 C0            1 RES     
    2576 C0         -31.1610     3.6527    25.3335 C0            1 RES     
    2577 C0         -30.1345     4.7935    25.3169 C0            1 RES     
    2578 C0         -32.2869    -7.1105    22.3045 C0            1 RES     
    2579 C0         -30.6635    -6.8920    22.2469 C0            1 RES     
    2580 C0         -30.2073    -5.4747    22.7799 C0            1 RES     
    2581 C0         -28.7873    -4.9943    22.4983 C0            1 RES     
    2582 C0         -28.4857    -3.5420    22.9099 C0            1 RES     
    2583 C0         -28.3757    -3.3558    24.4375 C0            1 RES     
    2584 C0         -27.5861    -2.0889    24.8138 C0            1 RES     
    2585 C0         -28.2816    -0.7943    24.4298 C0            1 RES     
    2586 C0         -29.6832    -8.0738    22.6838 C0            1 RES     
    2587 C0         -28.3608    -8.0800    21.8264 C0            1 RES     
    2588 C0         -27.2848    -9.1986    21.8941 C0            1 RES     
    2589 C0         -26.1447    -9.0944    22.9596 C0            1 RES     
    2590 C0         -24.8433    -9.7070    22.3544 C0            1 RES     
    2591 C0         -23.5721    -9.6872    23.2306 C0            1 RES     
    2592 C0         -22.3520   -10.0924    22.3658 C0            1 RES     
    2593 C0         -21.0424   -10.1642    23.1497 C0            1 RES     
    2594 H4         -31.7699    -9.7064    23.4220 H4            1 RES     
    2595 H5         -31.1629   -11.7242    22.9792 H5            1 RES     
    2596 H4         -35.0160    -5.7378    21.6101 H4            1 RES     
    2597 H6         -32.1657    -5.8962    25.0185 H6            1 RES     
    2598 H6         -32.4683    -5.1104    23.3921 H6            1 RES     
    2599 H6         -34.0330    -4.4913    25.7547 H6            1 RES     
    2600 H6         -34.2886    -2.6068    23.4946 H6            1 RES     
    2601 H6         -34.7080    -4.1472    22.9007 H6            1 RES     
    2602 H6         -36.2827    -4.4449    24.9513 H6            1 RES     
    2603 H6         -35.8437    -2.7448    25.3886 H6            1 RES     
    2604 H6         -36.8438    -2.0163    23.1238 H6            1 RES     
    2605 H6         -37.2989    -3.7452    22.8536 H6            1 RES     
    2606 H6         -38.2098    -1.9041    25.1684 H6            1 RES     
    2607 H6         -38.5979    -3.6658    25.0653 H6            1 RES     
    2608 H6         -39.4608    -1.5625    22.9777 H6            1 RES     
    2609 H6         -39.8318    -3.3321    22.9562 H6            1 RES     
    2610 H6         -41.0365    -3.0942    25.1576 H6            1 RES     
    2611 H6         -40.6898    -1.3197    25.1398 H6            1 RES     
    2612 H6         -41.7495    -2.0475    23.8746 H6            1 RES     
    2613 H6         -31.7084    -3.8314    25.7633 H6            1 RES     
    2614 H6         -31.7290    -3.2305    24.0841 H6            1 RES     
    2615 H6         -32.9928    -1.7170    26.4620 H6            1 RES     
    2616 H6         -31.3348    -1.6502    25.8243 H6            1 RES     
    2617 H6         -32.2148    -0.9856    23.5272 H6            1 RES     
    2618 H6         -33.7822    -0.5899    24.3329 H6            1 RES     
    2619 H6         -32.3975     0.9938    25.8967 H6            1 RES     
    2620 H6         -30.9500     0.4682    24.9929 H6            1 RES     
    2621 H6         -32.0369     1.3404    22.8462 H6            1 RES     
    2622 H6         -33.2459     2.1533    23.8998 H6            1 RES     
    2623 H6         -31.3882     3.6544    23.1798 H6            1 RES     
    2624 H6         -30.1568     2.5058    23.8029 H6            1 RES     
    2625 H6         -30.8839     2.9450    26.1432 H6            1 RES     
    2626 H6         -32.1643     4.0767    25.5460 H6            1 RES     
    2627 H6         -30.3952     5.5416    24.5372 H6            1 RES     
    2628 H6         -29.1139     4.4041    25.1099 H6            1 RES     
    2629 H6         -30.1188     5.3067    26.3019 H6            1 RES     
    2630 H6         -32.5021    -8.0598    21.7667 H6            1 RES     
    2631 H6         -32.6736    -6.3181    21.6236 H6            1 RES     
    2632 H6         -30.5273    -6.8501    21.1445 H6            1 RES     
    2633 H6         -30.3312    -5.4293    23.8784 H6            1 RES     
    2634 H6         -30.8322    -4.7210    22.2545 H6            1 RES     
    2635 H6         -28.0659    -5.6033    23.0711 H6            1 RES     
    2636 H6         -28.6240    -5.0716    21.4015 H6            1 RES     
    2637 H6         -27.4832    -3.3289    22.4821 H6            1 RES     
    2638 H6         -29.2082    -2.8262    22.4581 H6            1 RES     
    2639 H6         -27.7828    -4.1982    24.8525 H6            1 RES     
    2640 H6         -29.3761    -3.3747    24.9189 H6            1 RES     
    2641 H6         -26.5873    -2.1243    24.3270 H6            1 RES     
    2642 H6         -27.4291    -2.0793    25.9141 H6            1 RES     
    2643 H6         -27.6456     0.0693    24.7203 H6            1 RES     
    2644 H6         -29.2261    -0.7413    24.9898 H6            1 RES     
    2645 H6         -28.4763    -0.7378    23.3393 H6            1 RES     
    2646 H6         -29.5130    -8.0789    23.7828 H6            1 RES     
    2647 H6         -30.1380    -9.0318    22.3837 H6            1 RES     
    2648 H6         -28.7353    -8.1272    20.7811 H6            1 RES     
    2649 H6         -27.7734    -7.1691    21.8720 H6            1 RES     
    2650 H6         -26.7629    -9.0299    20.9253 H6            1 RES     
    2651 H6         -27.7068   -10.2229    21.8304 H6            1 RES     
    2652 H6         -26.4485    -9.5832    23.9107 H6            1 RES     
    2653 H6         -25.9126    -8.0277    23.1704 H6            1 RES     
    2654 H6         -24.6058    -9.1032    21.4493 H6            1 RES     
    2655 H6         -25.0309   -10.7547    22.0349 H6            1 RES     
    2656 H6         -23.6952   -10.3914    24.0816 H6            1 RES     
    2657 H6         -23.3915    -8.6655    23.6299 H6            1 RES     
    2658 H6         -22.2212    -9.3436    21.5521 H6            1 RES     
    2659 H6         -22.5283   -11.0856    21.8990 H6            1 RES     
    2660 H6         -21.1007   -10.9499    23.9311 H6            1 RES     
    2661 H6         -20.8058    -9.1865    23.6187 H6            1 RES     
    2662 H6         -20.2134   -10.4263    22.4541 H6            1 RES     
    2663 C0         -41.8618    -4.6920    15.0861 C0            1 RES     
    2664 C1         -42.6113    -5.8258    15.2325 C1            1 RES     
    2665 C1         -43.1956    -5.9294    16.4427 C1            1 RES     
    2666 C1         -42.8590    -4.9486    17.2206 C1            1 RES     
    2667 C1         -41.9287    -4.0409    16.5267 C1            1 RES     
    2668 C1         -40.7657    -4.3051    17.4712 C1            1 RES     
    2669 C1         -41.0598    -4.8722    18.6773 C1            1 RES     
    2670 S2         -42.8525    -5.0368    18.9771 S2            1 RES     
    2671 C1         -40.0016    -5.3761    19.6500 C1            1 RES     
    2672 C1         -38.6355    -4.9861    19.5253 C1            1 RES     
    2673 N3         -37.6766    -5.4518    20.3772 N3            1 RES     
    2674 C1         -37.9445    -6.3226    21.3759 C1            1 RES     
    2675 C1         -39.2501    -6.7656    21.5468 C1            1 RES     
    2676 C1         -40.2868    -6.2877    20.6885 C1            1 RES     
    2677 N3         -41.5211    -6.8041    20.9482 N3            1 RES     
    2678 S2         -41.2357    -7.8121    22.2315 S2            1 RES     
    2679 N3         -39.6140    -7.6554    22.5021 N3            1 RES     
    2680 S2         -44.0102    -7.3728    16.6757 S2            1 RES     
    2681 C1         -43.6188    -7.9258    15.1238 C1            1 RES     
    2682 C1         -42.8129    -6.9872    14.4680 C1            1 RES     
    2683 C0         -42.5384    -3.8410    13.9060 C0            1 RES     
    2684 C0         -43.8436    -3.7433    12.9671 C0            1 RES     
    2685 C0         -44.2572    -5.0499    12.2192 C0            1 RES     
    2686 C0         -45.6966    -5.4655    12.5773 C0            1 RES     
    2687 C0         -46.1113    -6.8422    12.0273 C0            1 RES     
    2688 C0         -47.5960    -7.0967    12.3503 C0            1 RES     
    2689 C0         -48.0455    -8.5250    12.0180 C0            1 RES     
    2690 C0         -49.5337    -8.7056    12.3259 C0            1 RES     
    2691 C0         -43.4989    -2.5952    11.9174 C0            1 RES     
    2692 C0         -44.4016    -2.0813    10.7522 C0            1 RES     
    2693 C0         -44.3845    -2.8868     9.4168 C0            1 RES     
    2694 C0         -44.6761    -1.9681     8.1906 C0            1 RES     
    2695 C0         -44.5680    -2.6934     6.8331 C0            1 RES     
    2696 C0         -44.3492    -1.7473     5.6238 C0            1 RES     
    2697 C0         -45.4370    -0.6857     5.4054 C0            1 RES     
    2698 C0         -45.1302     0.1546     4.1582 C0            1 RES     
    2699 C0         -40.3982    -4.9693    14.4911 C0            1 RES     
    2700 C0         -39.3091    -3.8614    13.9686 C0            1 RES     
    2701 C0         -39.8396    -2.9892    12.7608 C0            1 RES     
    2702 C0         -38.8519    -2.1486    11.9582 C0            1 RES     
    2703 C0         -39.4290    -1.4652    10.7054 C0            1 RES     
    2704 C0         -40.3571    -0.2780    11.0364 C0            1 RES     
    2705 C0         -40.5032     0.6941     9.8517 C0            1 RES     
    2706 C0         -41.2312     0.1025     8.6571 C0            1 RES     
    2707 C0         -38.4561    -3.0213    15.0245 C0            1 RES     
    2708 C0         -37.0042    -2.7191    14.4911 C0            1 RES     
    2709 C0         -35.8813    -2.0678    15.3446 C0            1 RES     
    2710 C0         -35.7762    -0.5084    15.4016 C0            1 RES     
    2711 C0         -34.2699    -0.1172    15.5169 C0            1 RES     
    2712 C0         -33.9260     1.3875    15.5624 C0            1 RES     
    2713 C0         -32.3939     1.5636    15.4130 C0            1 RES     
    2714 C0         -31.9328     3.0175    15.5041 C0            1 RES     
    2715 H4         -39.7648    -4.1416    17.1685 H4            1 RES     
    2716 H5         -38.3252    -4.2905    18.7627 H5            1 RES     
    2717 H4         -42.3858    -7.1770    13.4961 H4            1 RES     
    2718 H6         -42.4249    -2.8006    14.2792 H6            1 RES     
    2719 H6         -41.9292    -4.0694    13.0549 H6            1 RES     
    2720 H6         -44.6990    -3.3903    13.5840 H6            1 RES     
    2721 H6         -44.1872    -4.9401    11.1222 H6            1 RES     
    2722 H6         -43.5482    -5.8458    12.4156 H6            1 RES     
    2723 H6         -45.7957    -5.5107    13.6843 H6            1 RES     
    2724 H6         -46.3839    -4.6830    12.1865 H6            1 RES     
    2725 H6         -45.9632    -6.8953    10.9261 H6            1 RES     
    2726 H6         -45.4781    -7.6188    12.5106 H6            1 RES     
    2727 H6         -48.2124    -6.3688    11.7764 H6            1 RES     
    2728 H6         -47.7708    -6.9312    13.4358 H6            1 RES     
    2729 H6         -47.8697    -8.7502    10.9443 H6            1 RES     
    2730 H6         -47.4632    -9.2436    12.6357 H6            1 RES     
    2731 H6         -49.7421    -8.4783    13.3939 H6            1 RES     
    2732 H6         -50.1434    -8.0291    11.6890 H6            1 RES     
    2733 H6         -49.8399    -9.7534    12.1231 H6            1 RES     
    2734 H6         -43.3232    -1.6957    12.5473 H6            1 RES     
    2735 H6         -42.5300    -2.8304    11.4230 H6            1 RES     
    2736 H6         -45.4287    -1.8204    11.0776 H6            1 RES     
    2737 H6         -43.9039    -1.1208    10.4899 H6            1 RES     
    2738 H6         -43.3558    -3.2812     9.2550 H6            1 RES     
    2739 H6         -45.0909    -3.7406     9.4574 H6            1 RES     
    2740 H6         -45.6659    -1.4720     8.2768 H6            1 RES     
    2741 H6         -43.9066    -1.1816     8.1827 H6            1 RES     
    2742 H6         -43.6718    -3.3518     6.8464 H6            1 RES     
    2743 H6         -45.4622    -3.3347     6.6829 H6            1 RES     
    2744 H6         -44.2763    -2.3761     4.7088 H6            1 RES     
    2745 H6         -43.3741    -1.2257     5.7513 H6            1 RES     
    2746 H6         -45.4788    -0.0064     6.2829 H6            1 RES     
    2747 H6         -46.4247    -1.1743     5.2739 H6            1 RES     
    2748 H6         -45.1103    -0.4870     3.2507 H6            1 RES     
    2749 H6         -44.1465     0.6634     4.2564 H6            1 RES     
    2750 H6         -45.9122     0.9311     4.0198 H6            1 RES     
    2751 H6         -39.8689    -5.6199    15.2214 H6            1 RES     
    2752 H6         -40.5433    -5.6220    13.6000 H6            1 RES     
    2753 H6         -38.5536    -4.5471    13.5273 H6            1 RES     
    2754 H6         -40.6163    -2.2868    13.1181 H6            1 RES     
    2755 H6         -40.2321    -3.7005    12.0029 H6            1 RES     
    2756 H6         -38.4743    -1.3187    12.5812 H6            1 RES     
    2757 H6         -38.0370    -2.8265    11.6237 H6            1 RES     
    2758 H6         -38.5448    -1.0506    10.1765 H6            1 RES     
    2759 H6         -39.9208    -2.1962    10.0257 H6            1 RES     
    2760 H6         -39.8866     0.3215    11.8442 H6            1 RES     
    2761 H6         -41.3443    -0.6286    11.4045 H6            1 RES     
    2762 H6         -39.4938     1.0331     9.5321 H6            1 RES     
    2763 H6         -41.0715     1.5874    10.1903 H6            1 RES     
    2764 H6         -41.2833     0.8570     7.8428 H6            1 RES     
    2765 H6         -42.2540    -0.1445     8.9754 H6            1 RES     
    2766 H6         -40.7196    -0.8014     8.2679 H6            1 RES     
    2767 H6         -39.0089    -2.1217    15.3738 H6            1 RES     
    2768 H6         -38.2367    -3.6692    15.8886 H6            1 RES     
    2769 H6         -36.6078    -3.7281    14.2463 H6            1 RES     
    2770 H6         -36.9576    -2.1667    13.5586 H6            1 RES     
    2771 H6         -34.9849    -2.3760    14.7607 H6            1 RES     
    2772 H6         -35.7595    -2.5330    16.3446 H6            1 RES     
    2773 H6         -36.3912    -0.1022    16.2338 H6            1 RES     
    2774 H6         -36.1365    -0.0643    14.4481 H6            1 RES     
    2775 H6         -33.7718    -0.5219    14.6068 H6            1 RES     
    2776 H6         -33.8189    -0.6056    16.4073 H6            1 RES     
    2777 H6         -34.2740     1.8201    16.5252 H6            1 RES     
    2778 H6         -34.4213     1.9246    14.7245 H6            1 RES     
    2779 H6         -32.0798     1.1683    14.4205 H6            1 RES     
    2780 H6         -31.8648     0.9850    16.2007 H6            1 RES     
    2781 H6         -32.1628     3.4352    16.5061 H6            1 RES     
    2782 H6         -32.4155     3.6375    14.7202 H6            1 RES     
    2783 H6         -30.8305     3.0619    15.3534 H6            1 RES     
    2784 C0         -43.5562   -16.4208    11.5714 C0            1 RES     
    2785 C1         -43.7516   -16.9764    12.8051 C1            1 RES     
    2786 C1         -44.8635   -16.5312    13.4233 C1            1 RES     
    2787 C1         -45.4667   -15.6218    12.7237 C1            1 RES     
    2788 C1         -44.7261   -15.3595    11.4773 C1            1 RES     
    2789 C1         -44.3949   -13.9167    11.8279 C1            1 RES     
    2790 C1         -45.1307   -13.3320    12.8178 C1            1 RES     
    2791 S2         -46.5064   -14.3775    13.4049 S2            1 RES     
    2792 C1         -44.8016   -11.9714    13.4182 C1            1 RES     
    2793 C1         -43.9144   -11.0677    12.7625 C1            1 RES     
    2794 N3         -43.5947    -9.8570    13.3050 N3            1 RES     
    2795 C1         -44.0730    -9.4400    14.4986 C1            1 RES     
    2796 C1         -44.9268   -10.2758    15.2076 C1            1 RES     
    2797 C1         -45.3014   -11.5432    14.6663 C1            1 RES     
    2798 N3         -46.1325   -12.2756    15.4601 N3            1 RES     
    2799 S2         -46.3481   -11.2909    16.7748 S2            1 RES     
    2800 N3         -45.4385    -9.9583    16.4218 N3            1 RES     
    2801 S2         -45.0433   -17.1088    14.9839 S2            1 RES     
    2802 C1         -43.6146   -18.0128    14.8893 C1            1 RES     
    2803 C1         -42.9956   -17.8055    13.6506 C1            1 RES     
    2804 C0         -43.6195   -17.6218    10.5094 C0            1 RES     
    2805 C0         -43.9920   -19.1798    10.3405 C0            1 RES     
    2806 C0         -43.3408   -20.1618    11.3648 C0            1 RES     
    2807 C0         -44.4128   -20.9533    12.1376 C0            1 RES     
    2808 C0         -43.8579   -21.8039    13.2943 C0            1 RES     
    2809 C0         -44.9995   -22.6315    13.9151 C0            1 RES     
    2810 C0         -44.5832   -23.3576    15.2004 C0            1 RES     
    2811 C0         -45.7453   -24.1889    15.7486 C0            1 RES     
    2812 C0         -43.5310   -19.5453     8.8597 C0            1 RES     
    2813 C0         -43.6371   -20.9343     8.1553 C0            1 RES     
    2814 C0         -42.5096   -21.9744     8.4369 C0            1 RES     
    2815 C0         -42.3005   -22.9339     7.2251 C0            1 RES     
    2816 C0         -41.1254   -23.9167     7.4084 C0            1 RES     
    2817 C0         -40.5800   -24.5082     6.0825 C0            1 RES     
    2818 C0         -41.5978   -25.2821     5.2320 C0            1 RES     
    2819 C0         -40.9288   -25.8530     3.9742 C0            1 RES     
    2820 C0         -42.0665   -15.8682    11.3513 C0            1 RES     
    2821 C0         -41.3937   -15.3491     9.9497 C0            1 RES     
    2822 C0         -41.3457   -16.4663     8.8315 C0            1 RES     
    2823 C0         -40.4735   -16.2502     7.5990 C0            1 RES     
    2824 C0         -40.3608   -17.4554     6.6480 C0            1 RES     
    2825 C0         -41.6500   -17.7120     5.8402 C0            1 RES     
    2826 C0         -41.3844   -18.5348     4.5665 C0            1 RES     
    2827 C0         -40.9427   -19.9625     4.8377 C0            1 RES     
    2828 C0         -41.7547   -13.9026     9.3789 C0            1 RES     
    2829 C0         -40.5245   -13.2417     8.6483 C0            1 RES     
    2830 C0         -40.5032   -11.7765     8.1319 C0            1 RES     
    2831 C0         -41.0397   -11.4679     6.6957 C0            1 RES     
    2832 C0         -40.2021   -10.2963     6.0950 C0            1 RES     
    2833 C0         -40.5445    -9.8377     4.6608 C0            1 RES     
    2834 C0         -39.4472    -8.8637     4.1628 C0            1 RES     
    2835 C0         -39.7170    -8.2981     2.7692 C0            1 RES     
    2836 H4         -43.5702   -13.4202    11.3878 H4            1 RES     
    2837 H5         -43.4865   -11.3092    11.8032 H5            1 RES     
    2838 H4         -42.0314   -18.2264    13.4134 H4            1 RES     
    2839 H6         -44.1525   -17.1473     9.6578 H6            1 RES     
    2840 H6         -42.5878   -17.8358    10.3153 H6            1 RES     
    2841 H6         -45.0981   -19.2872    10.3855 H6            1 RES     
    2842 H6         -42.6599   -20.8809    10.8752 H6            1 RES     
    2843 H6         -42.6723   -19.6320    12.0334 H6            1 RES     
    2844 H6         -45.1440   -20.2391    12.5765 H6            1 RES     
    2845 H6         -44.9422   -21.6083    11.4107 H6            1 RES     
    2846 H6         -43.0598   -22.4924    12.9388 H6            1 RES     
    2847 H6         -43.4253   -21.1197    14.0574 H6            1 RES     
    2848 H6         -45.3468   -23.3747    13.1627 H6            1 RES     
    2849 H6         -45.8480   -21.9584    14.1667 H6            1 RES     
    2850 H6         -43.7192   -24.0289    15.0077 H6            1 RES     
    2851 H6         -44.2900   -22.6055    15.9655 H6            1 RES     
    2852 H6         -46.6294   -23.5439    15.9435 H6            1 RES     
    2853 H6         -46.0304   -24.9789    15.0208 H6            1 RES     
    2854 H6         -45.4486   -24.6762    16.7011 H6            1 RES     
    2855 H6         -44.1261   -18.8627     8.2142 H6            1 RES     
    2856 H6         -42.4642   -19.2576     8.7271 H6            1 RES     
    2857 H6         -44.6505   -21.3794     8.2172 H6            1 RES     
    2858 H6         -43.4827   -20.6569     7.0883 H6            1 RES     
    2859 H6         -41.5461   -21.4284     8.5537 H6            1 RES     
    2860 H6         -42.7133   -22.5404     9.3684 H6            1 RES     
    2861 H6         -43.2278   -23.4940     6.9816 H6            1 RES     
    2862 H6         -42.0479   -22.3093     6.3551 H6            1 RES     
    2863 H6         -40.2646   -23.3707     7.8529 H6            1 RES     
    2864 H6         -41.4217   -24.7218     8.1139 H6            1 RES     
    2865 H6         -39.7364   -25.1882     6.3349 H6            1 RES     
    2866 H6         -40.1692   -23.6785     5.4645 H6            1 RES     
    2867 H6         -42.4154   -24.6010     4.9145 H6            1 RES     
    2868 H6         -42.0272   -26.1193     5.8205 H6            1 RES     
    2869 H6         -40.1220   -26.5659     4.2508 H6            1 RES     
    2870 H6         -40.4892   -25.0398     3.3564 H6            1 RES     
    2871 H6         -41.6768   -26.3945     3.3568 H6            1 RES     
    2872 H6         -41.9043   -15.0640    12.1022 H6            1 RES     
    2873 H6         -41.3810   -16.6848    11.6744 H6            1 RES     
    2874 H6         -40.3424   -15.2274    10.2899 H6            1 RES     
    2875 H6         -42.3664   -16.6604     8.4512 H6            1 RES     
    2876 H6         -40.8931   -17.3663     9.3002 H6            1 RES     
    2877 H6         -40.8975   -15.4418     6.9778 H6            1 RES     
    2878 H6         -39.4490   -16.0105     7.9575 H6            1 RES     
    2879 H6         -39.5716   -17.1693     5.9208 H6            1 RES     
    2880 H6         -40.0183   -18.3708     7.1801 H6            1 RES     
    2881 H6         -42.0375   -16.7366     5.4772 H6            1 RES     
    2882 H6         -42.4362   -18.1758     6.4726 H6            1 RES     
    2883 H6         -40.6081   -18.0226     3.9574 H6            1 RES     
    2884 H6         -42.3184   -18.5742     3.9652 H6            1 RES     
    2885 H6         -40.7582   -20.4837     3.8738 H6            1 RES     
    2886 H6         -41.7614   -20.4733     5.3642 H6            1 RES     
    2887 H6         -40.0133   -19.9995     5.4420 H6            1 RES     
    2888 H6         -42.6868   -13.9230     8.7726 H6            1 RES     
    2889 H6         -41.8921   -13.2169    10.2307 H6            1 RES     
    2890 H6         -39.7254   -13.2686     9.4202 H6            1 RES     
    2891 H6         -40.1241   -13.8042     7.8117 H6            1 RES     
    2892 H6         -39.4053   -11.6118     8.0495 H6            1 RES     
    2893 H6         -40.8595   -11.0386     8.8801 H6            1 RES     
    2894 H6         -42.1294   -11.2493     6.7207 H6            1 RES     
    2895 H6         -40.8708   -12.3401     6.0272 H6            1 RES     
    2896 H6         -39.1469   -10.6510     6.0637 H6            1 RES     
    2897 H6         -40.2526    -9.4118     6.7658 H6            1 RES     
    2898 H6         -41.5374    -9.3383     4.6565 H6            1 RES     
    2899 H6         -40.5750   -10.7092     3.9713 H6            1 RES     
    2900 H6         -38.4737    -9.4031     4.1288 H6            1 RES     
    2901 H6         -39.3470    -8.0097     4.8671 H6            1 RES     
    2902 H6         -40.6460    -7.6911     2.7702 H6            1 RES     
    2903 H6         -39.8024    -9.1120     2.0196 H6            1 RES     
    2904 H6         -38.8707    -7.6384     2.4720 H6            1 RES     
    2905 C0         -38.2610   -21.5639    21.4859 C0            1 RES     
    2906 C1         -38.9488   -20.8900    22.4562 C1            1 RES     
    2907 C1         -40.2689   -21.1620    22.4644 C1            1 RES     
    2908 C1         -40.5969   -21.9630    21.4993 C1            1 RES     
    2909 C1         -39.4121   -22.3061    20.6936 C1            1 RES     
    2910 C1         -39.9276   -21.6468    19.4231 C1            1 RES     
    2911 C1         -41.2641   -21.3769    19.3601 C1            1 RES     
    2912 S2         -42.1998   -22.0401    20.7796 S2            1 RES     
    2913 C1         -41.9038   -20.5515    18.2514 C1            1 RES     
    2914 C1         -41.2152   -20.2923    17.0298 C1            1 RES     
    2915 N3         -41.7708   -19.5335    16.0409 N3            1 RES     
    2916 C1         -42.9905   -18.9616    16.1543 C1            1 RES     
    2917 C1         -43.7135   -19.1512    17.3254 C1            1 RES     
    2918 C1         -43.1761   -19.9543    18.3770 C1            1 RES     
    2919 N3         -43.9734   -20.0550    19.4777 N3            1 RES     
    2920 S2         -45.2929   -19.1442    19.0608 S2            1 RES     
    2921 N3         -44.9324   -18.6003    17.5436 N3            1 RES     
    2922 S2         -41.1381   -20.2473    23.5639 S2            1 RES     
    2923 C1         -39.7485   -19.4411    24.0988 C1            1 RES     
    2924 C1         -38.6331   -19.8696    23.3689 C1            1 RES     
    2925 C0         -37.2113   -22.5144    22.2404 C0            1 RES     
    2926 C0         -36.7936   -23.0872    23.6868 C0            1 RES     
    2927 C0         -36.6043   -22.0311    24.8209 C0            1 RES     
    2928 C0         -37.5353   -22.3205    26.0135 C0            1 RES     
    2929 C0         -37.5428   -21.2200    27.0898 C0            1 RES     
    2930 C0         -38.4160   -21.6703    28.2766 C0            1 RES     
    2931 C0         -38.6452   -20.5584    29.3080 C0            1 RES     
    2932 C0         -39.4867   -21.0750    30.4773 C0            1 RES     
    2933 C0         -35.4290   -23.8691    23.4309 C0            1 RES     
    2934 C0         -34.5592   -24.6181    24.4888 C0            1 RES     
    2935 C0         -33.5604   -23.7690    25.3337 C0            1 RES     
    2936 C0         -32.3177   -24.6077    25.7638 C0            1 RES     
    2937 C0         -31.2465   -23.7886    26.5135 C0            1 RES     
    2938 C0         -29.8345   -24.4302    26.5031 C0            1 RES     
    2939 C0         -29.7390   -25.8359    27.1139 C0            1 RES     
    2940 C0         -28.2900   -26.3411    27.0849 C0            1 RES     
    2941 C0         -37.2888   -20.6223    20.6249 C0            1 RES     
    2942 C0         -36.1509   -21.0906    19.5420 C0            1 RES     
    2943 C0         -35.0200   -21.9938    20.1794 C0            1 RES     
    2944 C0         -33.7347   -22.2418    19.3964 C0            1 RES     
    2945 C0         -32.6287   -22.9923    20.1600 C0            1 RES     
    2946 C0         -32.9398   -24.4902    20.3594 C0            1 RES     
    2947 C0         -31.6700   -25.3169    20.6318 C0            1 RES     
    2948 C0         -31.0012   -24.9975    21.9576 C0            1 RES     
    2949 C0         -36.5867   -21.5652    18.0814 C0            1 RES     
    2950 C0         -35.5230   -21.1528    16.9941 C0            1 RES     
    2951 C0         -35.7318   -21.3222    15.4639 C0            1 RES     
    2952 C0         -35.3401   -22.6769    14.7877 C0            1 RES     
    2953 C0         -34.8186   -22.3793    13.3473 C0            1 RES     
    2954 C0         -34.3479   -23.5796    12.4977 C0            1 RES     
    2955 C0         -33.6350   -23.0542    11.2263 C0            1 RES     
    2956 C0         -33.1779   -24.1620    10.2784 C0            1 RES     
    2957 H4         -39.2646   -21.3283    18.6620 H4            1 RES     
    2958 H5         -40.2392   -20.7102    16.8443 H5            1 RES     
    2959 H4         -37.6587   -19.4252    23.4962 H4            1 RES     
    2960 H6         -37.2368   -23.4295    21.6109 H6            1 RES     
    2961 H6         -36.2925   -21.9668    22.1793 H6            1 RES     
    2962 H6         -37.5545   -23.8328    24.0065 H6            1 RES     
    2963 H6         -35.5632   -21.9995    25.1891 H6            1 RES     
    2964 H6         -36.7423   -21.0268    24.4375 H6            1 RES     
    2965 H6         -38.5786   -22.4235    25.6418 H6            1 RES     
    2966 H6         -37.2181   -23.2858    26.4663 H6            1 RES     
    2967 H6         -36.5134   -21.0082    27.4540 H6            1 RES     
    2968 H6         -37.9606   -20.2920    26.6404 H6            1 RES     
    2969 H6         -37.9234   -22.5391    28.7682 H6            1 RES     
    2970 H6         -39.4113   -21.9929    27.9004 H6            1 RES     
    2971 H6         -37.6757   -20.1829    29.6999 H6            1 RES     
    2972 H6         -39.1866   -19.7168    28.8228 H6            1 RES     
    2973 H6         -40.4618   -21.4661    30.1141 H6            1 RES     
    2974 H6         -38.9485   -21.8892    31.0086 H6            1 RES     
    2975 H6         -39.6836   -20.2528    31.1970 H6            1 RES     
    2976 H6         -35.7009   -24.6543    22.6917 H6            1 RES     
    2977 H6         -34.7083   -23.1906    22.9223 H6            1 RES     
    2978 H6         -35.1412   -25.3299    25.1082 H6            1 RES     
    2979 H6         -33.8996   -25.2365    23.8394 H6            1 RES     
    2980 H6         -33.1600   -22.9519    24.6918 H6            1 RES     
    2981 H6         -34.0650   -23.3173    26.2117 H6            1 RES     
    2982 H6         -32.6099   -25.4919    26.3687 H6            1 RES     
    2983 H6         -31.8382   -24.9746    24.8438 H6            1 RES     
    2984 H6         -31.1188   -22.8090    26.0028 H6            1 RES     
    2985 H6         -31.5891   -23.5919    27.5515 H6            1 RES     
    2986 H6         -29.1490   -23.7530    27.0591 H6            1 RES     
    2987 H6         -29.4746   -24.4825    25.4511 H6            1 RES     
    2988 H6         -30.3669   -26.5415    26.5297 H6            1 RES     
    2989 H6         -30.0912   -25.8184    28.1661 H6            1 RES     
    2990 H6         -27.6329   -25.6761    27.6863 H6            1 RES     
    2991 H6         -27.9041   -26.3754    26.0428 H6            1 RES     
    2992 H6         -28.2346   -27.3652    27.5113 H6            1 RES     
    2993 H6         -37.9323   -19.8748    20.1111 H6            1 RES     
    2994 H6         -36.7068   -20.0210    21.3603 H6            1 RES     
    2995 H6         -35.6698   -20.1069    19.3511 H6            1 RES     
    2996 H6         -35.4286   -22.9940    20.4176 H6            1 RES     
    2997 H6         -34.6592   -21.4601    21.0847 H6            1 RES     
    2998 H6         -33.9484   -22.8758    18.5180 H6            1 RES     
    2999 H6         -33.3270   -21.2488    19.1080 H6            1 RES     
    3000 H6         -31.7370   -22.9291    19.5010 H6            1 RES     
    3001 H6         -32.3779   -22.4915    21.1216 H6            1 RES     
    3002 H6         -33.3477   -24.8942    19.4087 H6            1 RES     
    3003 H6         -33.7057   -24.6411    21.1490 H6            1 RES     
    3004 H6         -30.9430   -25.1502    19.8074 H6            1 RES     
    3005 H6         -31.9396   -26.3952    20.6359 H6            1 RES     
    3006 H6         -30.0892   -25.6218    22.0735 H6            1 RES     
    3007 H6         -31.7076   -25.2522    22.7604 H6            1 RES     
    3008 H6         -30.7085   -23.9298    22.0259 H6            1 RES     
    3009 H6         -36.8589   -22.6433    18.0659 H6            1 RES     
    3010 H6         -37.4577   -20.9677    17.7670 H6            1 RES     
    3011 H6         -35.4277   -20.0545    17.1346 H6            1 RES     
    3012 H6         -34.5229   -21.5425    17.1515 H6            1 RES     
    3013 H6         -34.9748   -20.6019    15.0800 H6            1 RES     
    3014 H6         -36.7115   -20.9431    15.1065 H6            1 RES     
    3015 H6         -36.1975   -23.3845    14.7973 H6            1 RES     
    3016 H6         -34.4907   -23.1456    15.3309 H6            1 RES     
    3017 H6         -33.9313   -21.7171    13.4673 H6            1 RES     
    3018 H6         -35.5913   -21.8256    12.7717 H6            1 RES     
    3019 H6         -35.2232   -24.2059    12.2207 H6            1 RES     
    3020 H6         -33.6252   -24.2009    13.0701 H6            1 RES     
    3021 H6         -32.7350   -22.4735    11.5306 H6            1 RES     
    3022 H6         -34.3116   -22.3764    10.6622 H6            1 RES     
    3023 H6         -34.0515   -24.7270     9.8923 H6            1 RES     
    3024 H6         -32.4779   -24.8569    10.7874 H6            1 RES     
    3025 H6         -32.6476   -23.7065     9.4118 H6            1 RES     
    3026 C0         -38.7415   -11.4903    28.6329 C0            1 RES     
    3027 C1         -40.0654   -11.1900    28.4722 C1            1 RES     
    3028 C1         -40.8926   -12.1303    28.9708 C1            1 RES     
    3029 C1         -40.2349   -13.1444    29.4391 C1            1 RES     
    3030 C1         -38.7865   -12.9427    29.2591 C1            1 RES     
    3031 C1         -38.6111   -14.1209    28.3129 C1            1 RES     
    3032 C1         -39.6059   -15.0552    28.2910 C1            1 RES     
    3033 S2         -40.8854   -14.7739    29.5615 S2            1 RES     
    3034 C1         -39.6777   -16.1833    27.2701 C1            1 RES     
    3035 C1         -38.5433   -16.5450    26.4852 C1            1 RES     
    3036 N3         -38.6052   -17.5379    25.5511 N3            1 RES     
    3037 C1         -39.7379   -18.2280    25.2898 C1            1 RES     
    3038 C1         -40.8910   -17.9173    25.9995 C1            1 RES     
    3039 C1         -40.8639   -16.8978    26.9993 C1            1 RES     
    3040 N3         -42.0587   -16.6773    27.6170 N3            1 RES     
    3041 S2         -43.0611   -17.7716    26.8806 S2            1 RES     
    3042 N3         -42.0797   -18.5348    25.7933 N3            1 RES     
    3043 S2         -42.5112   -11.8330    28.6661 S2            1 RES     
    3044 C1         -42.1654   -10.3911    27.8485 C1            1 RES     
    3045 C1         -40.7805   -10.1941    27.7861 C1            1 RES     
    3046 C0         -38.1200   -10.3470    29.5717 C0            1 RES     
    3047 C0         -38.5034    -9.1003    30.5168 C0            1 RES     
    3048 C0         -39.4558    -8.0296    29.8970 C0            1 RES     
    3049 C0         -40.7307    -7.8597    30.7448 C0            1 RES     
    3050 C0         -41.8015    -6.9605    30.1010 C0            1 RES     
    3051 C0         -42.9731    -6.7750    31.0841 C0            1 RES     
    3052 C0         -44.1754    -6.0595    30.4557 C0            1 RES     
    3053 C0         -45.2897    -5.8729    31.4880 C0            1 RES     
    3054 C0         -37.1048    -8.4378    30.8958 C0            1 RES     
    3055 C0         -36.8692    -7.1775    31.7862 C0            1 RES     
    3056 C0         -37.0022    -5.7795    31.1078 C0            1 RES     
    3057 C0         -36.0882    -4.7199    31.7967 C0            1 RES     
    3058 C0         -36.1013    -3.3434    31.0999 C0            1 RES     
    3059 C0         -34.8717    -2.4558    31.4250 C0            1 RES     
    3060 C0         -34.6610    -2.1310    32.9110 C0            1 RES     
    3061 C0         -33.4444    -1.2141    33.0971 C0            1 RES     
    3062 C0         -37.8816   -11.3139    27.2904 C0            1 RES     
    3063 C0         -36.2501   -11.3577    27.1396 C0            1 RES     
    3064 C0         -35.5174   -10.2357    27.9796 C0            1 RES     
    3065 C0         -34.0479    -9.9365    27.7013 C0            1 RES     
    3066 C0         -33.4663    -8.7228    28.4484 C0            1 RES     
    3067 C0         -33.2535    -8.9834    29.9541 C0            1 RES     
    3068 C0         -32.2284    -8.0159    30.5728 C0            1 RES     
    3069 C0         -32.6915    -6.5697    30.6083 C0            1 RES     
    3070 C0         -35.4842   -12.7583    27.1578 C0            1 RES     
    3071 C0         -34.2265   -12.7461    26.2082 C0            1 RES     
    3072 C0         -33.3720   -14.0013    25.8792 C0            1 RES     
    3073 C0         -32.1842   -14.3820    26.8227 C0            1 RES     
    3074 C0         -31.0467   -15.0101    25.9587 C0            1 RES     
    3075 C0         -29.7544   -15.4404    26.6860 C0            1 RES     
    3076 C0         -28.6706   -15.7875    25.6344 C0            1 RES     
    3077 C0         -27.3617   -16.2856    26.2454 C0            1 RES     
    3078 H4         -37.7987   -14.1650    27.6358 H4            1 RES     
    3079 H5         -37.5935   -16.0552    26.6253 H5            1 RES     
    3080 H4         -40.3416    -9.3747    27.2393 H4            1 RES     
    3081 H6         -37.4145   -10.9276    30.2038 H6            1 RES     
    3082 H6         -37.6425    -9.6872    28.8757 H6            1 RES     
    3083 H6         -38.9563    -9.4916    31.4542 H6            1 RES     
    3084 H6         -38.9657    -7.0442    29.8006 H6            1 RES     
    3085 H6         -39.6876    -8.2721    28.8664 H6            1 RES     
    3086 H6         -41.1939    -8.8580    30.9062 H6            1 RES     
    3087 H6         -40.4306    -7.4391    31.7300 H6            1 RES     
    3088 H6         -41.3835    -5.9635    29.8393 H6            1 RES     
    3089 H6         -42.1601    -7.4528    29.1701 H6            1 RES     
    3090 H6         -42.6098    -6.1936    31.9611 H6            1 RES     
    3091 H6         -43.3190    -7.7709    31.4375 H6            1 RES     
    3092 H6         -43.8766    -5.0637    30.0639 H6            1 RES     
    3093 H6         -44.5667    -6.6736    29.6150 H6            1 RES     
    3094 H6         -45.6043    -6.8541    31.9051 H6            1 RES     
    3095 H6         -44.9391    -5.2247    32.3199 H6            1 RES     
    3096 H6         -46.1716    -5.3933    31.0137 H6            1 RES     
    3097 H6         -36.5521    -9.2504    31.4165 H6            1 RES     
    3098 H6         -36.5396    -8.2171    29.9629 H6            1 RES     
    3099 H6         -37.3931    -7.2277    32.7619 H6            1 RES     
    3100 H6         -35.7822    -7.2618    32.0109 H6            1 RES     
    3101 H6         -36.6303    -5.8576    30.0611 H6            1 RES     
    3102 H6         -38.0597    -5.4462    31.0861 H6            1 RES     
    3103 H6         -36.3372    -4.6018    32.8724 H6            1 RES     
    3104 H6         -35.0540    -5.0897    31.7306 H6            1 RES     
    3105 H6         -36.0602    -3.4960    29.9991 H6            1 RES     
    3106 H6         -37.0495    -2.8162    31.3376 H6            1 RES     
    3107 H6         -34.9832    -1.5014    30.8641 H6            1 RES     
    3108 H6         -33.9560    -2.9629    31.0462 H6            1 RES     
    3109 H6         -34.4815    -3.0692    33.4775 H6            1 RES     
    3110 H6         -35.5585    -1.6228    33.3204 H6            1 RES     
    3111 H6         -33.5991    -0.2485    32.5685 H6            1 RES     
    3112 H6         -32.5233    -1.6938    32.7003 H6            1 RES     
    3113 H6         -33.2894    -1.0005    34.1761 H6            1 RES     
    3114 H6         -38.2919   -12.0306    26.5456 H6            1 RES     
    3115 H6         -38.1473   -10.3128    26.8802 H6            1 RES     
    3116 H6         -36.1595   -11.0380    26.0789 H6            1 RES     
    3117 H6         -35.5801   -10.4737    29.0583 H6            1 RES     
    3118 H6         -36.0169    -9.2749    27.7309 H6            1 RES     
    3119 H6         -33.4249   -10.7891    28.0242 H6            1 RES     
    3120 H6         -33.9524    -9.7358    26.6122 H6            1 RES     
    3121 H6         -32.4625    -8.5682    27.9989 H6            1 RES     
    3122 H6         -34.0652    -7.8020    28.2697 H6            1 RES     
    3123 H6         -32.8069    -9.9928    30.0765 H6            1 RES     
    3124 H6         -34.2171    -8.9691    30.5056 H6            1 RES     
    3125 H6         -31.2765    -8.0799    30.0021 H6            1 RES     
    3126 H6         -32.0217    -8.3344    31.6175 H6            1 RES     
    3127 H6         -31.8950    -5.9354    31.0535 H6            1 RES     
    3128 H6         -33.5833    -6.5180    31.2489 H6            1 RES     
    3129 H6         -32.9225    -6.1851    29.5939 H6            1 RES     
    3130 H6         -35.2673   -13.0925    28.1960 H6            1 RES     
    3131 H6         -36.1204   -13.5090    26.6616 H6            1 RES     
    3132 H6         -34.6510   -12.4426    25.2270 H6            1 RES     
    3133 H6         -33.4804   -11.9920    26.4352 H6            1 RES     
    3134 H6         -32.8733   -13.6614    24.9437 H6            1 RES     
    3135 H6         -33.9773   -14.8850    25.5897 H6            1 RES     
    3136 H6         -32.5283   -15.0561    27.6370 H6            1 RES     
    3137 H6         -31.7508   -13.4672    27.2826 H6            1 RES     
    3138 H6         -30.7444   -14.2288    25.2250 H6            1 RES     
    3139 H6         -31.4380   -15.8844    25.3952 H6            1 RES     
    3140 H6         -29.9653   -16.3208    27.3306 H6            1 RES     
    3141 H6         -29.3711   -14.6115    27.3199 H6            1 RES     
    3142 H6         -28.4423   -14.8764    25.0365 H6            1 RES     
    3143 H6         -29.0475   -16.5717    24.9427 H6            1 RES     
    3144 H6         -27.5271   -17.2348    26.7959 H6            1 RES     
    3145 H6         -26.9283   -15.5267    26.9296 H6            1 RES     
    3146 H6         -26.6279   -16.4792    25.4307 H6            1 RES     
    3147 C0         -47.1728    -5.4703    21.8903 C0            1 RES     
    3148 C1         -48.1101    -6.4618    21.8047 C1            1 RES     
    3149 C1         -48.6470    -6.7959    22.9950 C1            1 RES     
    3150 C1         -48.1005    -6.1352    23.9673 C1            1 RES     
    3151 C1         -47.0525    -5.2375    23.4508 C1            1 RES     
    3152 C1         -45.9154    -5.9379    24.1795 C1            1 RES     
    3153 C1         -46.2526    -6.7578    25.2173 C1            1 RES     
    3154 S2         -48.0293    -6.7015    25.6308 S2            1 RES     
    3155 C1         -45.2611    -7.6757    25.9202 C1            1 RES     
    3156 C1         -43.8539    -7.4963    25.7740 C1            1 RES     
    3157 N3         -42.9585    -8.3287    26.3802 N3            1 RES     
    3158 C1         -43.3352    -9.3837    27.1368 C1            1 RES     
    3159 C1         -44.6907    -9.6359    27.3078 C1            1 RES     
    3160 C1         -45.6605    -8.7775    26.7060 C1            1 RES     
    3161 N3         -46.9553    -9.1353    26.9363 N3            1 RES     
    3162 S2         -46.8009   -10.4893    27.8784 S2            1 RES     
    3163 N3         -45.1672   -10.6813    28.0268 N3            1 RES     
    3164 S2         -49.7009    -8.0938    22.9177 S2            1 RES     
    3165 C1         -49.4897    -8.2564    21.2455 C1            1 RES     
    3166 C1         -48.5564    -7.3195    20.7854 C1            1 RES     
    3167 C0         -47.7354    -4.2292    21.0432 C0            1 RES     
    3168 C0         -49.0424    -3.6649    20.2896 C0            1 RES     
    3169 C0         -49.7228    -4.6299    19.2682 C0            1 RES     
    3170 C0         -51.1960    -4.8856    19.6388 C0            1 RES     
    3171 C0         -51.8812    -5.9711    18.7892 C0            1 RES     
    3172 C0         -53.3709    -6.0570    19.1724 C0            1 RES     
    3173 C0         -54.0897    -7.2455    18.5217 C0            1 RES     
    3174 C0         -55.5700    -7.2567    18.9102 C0            1 RES     
    3175 C0         -48.5416    -2.3458    19.5494 C0            1 RES     
    3176 C0         -49.3876    -1.3910    18.6496 C0            1 RES     
    3177 C0         -49.5802    -1.7908    17.1545 C0            1 RES     
    3178 C0         -49.7545    -0.5361    16.2445 C0            1 RES     
    3179 C0         -49.8441    -0.8688    14.7406 C0            1 RES     
    3180 C0         -49.5114     0.3233    13.8060 C0            1 RES     
    3181 C0         -50.3948     1.5678    13.9764 C0            1 RES     
    3182 C0         -49.9969     2.6556    12.9695 C0            1 RES     
    3183 C0         -45.8139    -5.8102    21.1086 C0            1 RES     
    3184 C0         -44.5653    -4.7961    20.7942 C0            1 RES     
    3185 C0         -44.9819    -3.5512    19.9123 C0            1 RES     
    3186 C0         -43.8948    -2.6968    19.2684 C0            1 RES     
    3187 C0         -44.3939    -1.6109    18.2982 C0            1 RES     
    3188 C0         -45.0720    -0.4244    19.0141 C0            1 RES     
    3189 C0         -45.0918     0.8457    18.1443 C0            1 RES     
    3190 C0         -45.9703     0.7323    16.9105 C0            1 RES     
    3191 C0         -43.5248    -4.4296    21.9482 C0            1 RES     
    3192 C0         -42.0683    -4.2355    21.3783 C0            1 RES     
    3193 C0         -40.8068    -4.0368    22.2630 C0            1 RES     
    3194 C0         -40.4147    -2.5921    22.7160 C0            1 RES     
    3195 C0         -38.8586    -2.5003    22.7875 C0            1 RES     
    3196 C0         -38.2427    -1.1436    23.1926 C0            1 RES     
    3197 C0         -36.7128    -1.1873    22.9511 C0            1 RES     
    3198 C0         -35.9890     0.0896    23.3758 C0            1 RES     
    3199 H4         -44.9165    -5.8643    23.8374 H4            1 RES     
    3200 H5         -43.4567    -6.6790    25.1944 H5            1 RES     
    3201 H4         -48.2167    -7.3029    19.7620 H4            1 RES     
    3202 H6         -47.4158    -3.3645    21.6632 H6            1 RES     
    3203 H6         -47.2184    -4.3123    20.1086 H6            1 RES     
    3204 H6         -49.7892    -3.3591    21.0551 H6            1 RES     
    3205 H6         -49.6846    -4.2365    18.2366 H6            1 RES     
    3206 H6         -49.1637    -5.5543    19.1819 H6            1 RES     
    3207 H6         -51.2505    -5.2157    20.6996 H6            1 RES     
    3208 H6         -51.7453    -3.9240    19.5329 H6            1 RES     
    3209 H6         -51.7964    -5.7437    17.7036 H6            1 RES     
    3210 H6         -51.3797    -6.9434    18.9906 H6            1 RES     
    3211 H6         -53.8691    -5.1087    18.8696 H6            1 RES     
    3212 H6         -53.4620    -6.1692    20.2749 H6            1 RES     
    3213 H6         -54.0080    -7.1933    17.4149 H6            1 RES     
    3214 H6         -53.6214    -8.1914    18.8722 H6            1 RES     
    3215 H6         -55.6837    -7.3000    20.0152 H6            1 RES     
    3216 H6         -56.0739    -6.3409    18.5328 H6            1 RES     
    3217 H6         -56.0723    -8.1436    18.4700 H6            1 RES     
    3218 H6         -48.1750    -1.6950    20.3734 H6            1 RES     
    3219 H6         -47.6563    -2.5920    18.9218 H6            1 RES     
    3220 H6         -50.3332    -1.0644    19.1271 H6            1 RES     
    3221 H6         -48.7347    -0.4907    18.6022 H6            1 RES     
    3222 H6         -48.6500    -2.2890    16.7990 H6            1 RES     
    3223 H6         -50.4287    -2.4950    17.0365 H6            1 RES     
    3224 H6         -50.6314     0.0728    16.5502 H6            1 RES     
    3225 H6         -48.8549     0.0849    16.3704 H6            1 RES     
    3226 H6         -49.0844    -1.6435    14.4968 H6            1 RES     
    3227 H6         -50.8468    -1.2885    14.5126 H6            1 RES     
    3228 H6         -49.5975    -0.0335    12.7557 H6            1 RES     
    3229 H6         -48.4523     0.6225    13.9733 H6            1 RES     
    3230 H6         -50.2707     1.9776    15.0010 H6            1 RES     
    3231 H6         -51.4604     1.3031    13.8151 H6            1 RES     
    3232 H6         -50.1370     2.2933    11.9280 H6            1 RES     
    3233 H6         -48.9331     2.9493    13.1044 H6            1 RES     
    3234 H6         -50.6287     3.5578    13.1133 H6            1 RES     
    3235 H6         -45.3799    -6.7139    21.5900 H6            1 RES     
    3236 H6         -46.1173    -6.1605    20.0955 H6            1 RES     
    3237 H6         -43.9697    -5.4488    20.1198 H6            1 RES     
    3238 H6         -45.5992    -2.8561    20.5123 H6            1 RES     
    3239 H6         -45.5329    -3.9529    19.0350 H6            1 RES     
    3240 H6         -43.3430    -2.1433    20.0485 H6            1 RES     
    3241 H6         -43.2345    -3.3812    18.6930 H6            1 RES     
    3242 H6         -43.4740    -1.2182    17.8155 H6            1 RES     
    3243 H6         -45.0423    -2.0364    17.5003 H6            1 RES     
    3244 H6         -44.4627    -0.1551    19.9028 H6            1 RES     
    3245 H6         -46.0887    -0.6954    19.3688 H6            1 RES     
    3246 H6         -44.0531     1.0888    17.8311 H6            1 RES     
    3247 H6         -45.4702     1.6925    18.7569 H6            1 RES     
    3248 H6         -45.9206     1.6790    16.3307 H6            1 RES     
    3249 H6         -47.0053     0.5788    17.2478 H6            1 RES     
    3250 H6         -45.6518    -0.1015    16.2519 H6            1 RES     
    3251 H6         -43.8865    -3.5823    22.5711 H6            1 RES     
    3252 H6         -43.3884    -5.3165    22.5879 H6            1 RES     
    3253 H6         -41.8755    -5.1894    20.8418 H6            1 RES     
    3254 H6         -41.9642    -3.4640    20.6228 H6            1 RES     
    3255 H6         -40.0101    -4.3159    21.5371 H6            1 RES     
    3256 H6         -40.7264    -4.7719    23.0903 H6            1 RES     
    3257 H6         -40.9057    -2.3345    23.6795 H6            1 RES     
    3258 H6         -40.7311    -1.8506    21.9503 H6            1 RES     
    3259 H6         -38.4857    -2.7160    21.7605 H6            1 RES     
    3260 H6         -38.4642    -3.2814    23.4725 H6            1 RES     
    3261 H6         -38.4606    -0.9406    24.2634 H6            1 RES     
    3262 H6         -38.6691    -0.3236    22.5749 H6            1 RES     
    3263 H6         -36.5228    -1.3412    21.8648 H6            1 RES     
    3264 H6         -36.2631    -2.0385    23.5066 H6            1 RES     
    3265 H6         -36.0920     0.2484    24.4692 H6            1 RES     
    3266 H6         -36.3853     0.9713    22.8304 H6            1 RES     
    3267 H6         -34.9054    -0.0079    23.1390 H6            1 RES     
    3268 C0         -51.1512   -15.3416    15.6040 C0            1 RES     
    3269 C1         -51.3881   -16.1743    16.6620 C1            1 RES     
    3270 C1         -52.3697   -15.7395    17.4769 C1            1 RES     
    3271 C1         -52.8274   -14.5868    17.0996 C1            1 RES     
    3272 C1         -52.1095   -14.1181    15.9014 C1            1 RES     
    3273 C1         -51.5034   -12.9015    16.5846 C1            1 RES     
    3274 C1         -52.0728   -12.4982    17.7577 C1            1 RES     
    3275 S2         -53.5885   -13.4240    18.1774 S2            1 RES     
    3276 C1         -51.4723   -11.4277    18.6595 C1            1 RES     
    3277 C1         -50.4655   -10.5373    18.1828 C1            1 RES     
    3278 N3         -49.9045    -9.5913    18.9907 N3            1 RES     
    3279 C1         -50.2425    -9.4451    20.2913 C1            1 RES     
    3280 C1         -51.2015   -10.2912    20.8340 C1            1 RES     
    3281 C1         -51.8269   -11.2821    20.0175 C1            1 RES     
    3282 N3         -52.7408   -12.0574    20.6665 N3            1 RES     
    3283 S2         -52.7111   -11.4496    22.2073 S2            1 RES     
    3284 N3         -51.5897   -10.2394    22.1314 N3            1 RES     
    3285 S2         -52.5802   -16.6853    18.8416 S2            1 RES     
    3286 C1         -51.3477   -17.7505    18.3798 C1            1 RES     
    3287 C1         -50.7589   -17.3160    17.1860 C1            1 RES     
    3288 C0         -51.4828   -16.1780    14.2755 C0            1 RES     
    3289 C0         -52.1422   -17.5468    13.7405 C0            1 RES     
    3290 C0         -51.6358   -18.8651    14.4061 C0            1 RES     
    3291 C0         -52.7980   -19.6510    15.0421 C0            1 RES     
    3292 C0         -52.3558   -20.8653    15.8784 C0            1 RES     
    3293 C0         -53.6001   -21.6323    16.3655 C0            1 RES     
    3294 C0         -53.2652   -22.7411    17.3709 C0            1 RES     
    3295 C0         -54.5336   -23.4884    17.7892 C0            1 RES     
    3296 C0         -51.8250   -17.5627    12.1791 C0            1 RES     
    3297 C0         -52.2166   -18.6682    11.1489 C0            1 RES     
    3298 C0         -51.2873   -19.9160    11.0412 C0            1 RES     
    3299 C0         -51.3140   -20.5272     9.6064 C0            1 RES     
    3300 C0         -50.3321   -21.7017     9.4148 C0            1 RES     
    3301 C0         -49.9663   -21.9881     7.9350 C0            1 RES     
    3302 C0         -51.1470   -22.3210     7.0112 C0            1 RES     
    3303 C0         -50.6528   -22.6268     5.5907 C0            1 RES     
    3304 C0         -49.5971   -15.0023    15.3971 C0            1 RES     
    3305 C0         -48.9059   -14.2365    14.1234 C0            1 RES     
    3306 C0         -49.1154   -14.9963    12.7524 C0            1 RES     
    3307 C0         -48.2762   -14.5968    11.5430 C0            1 RES     
    3308 C0         -48.4306   -15.4963    10.3035 C0            1 RES     
    3309 C0         -49.7809   -15.3063     9.5817 C0            1 RES     
    3310 C0         -49.7298   -15.7802     8.1179 C0            1 RES     
    3311 C0         -49.5456   -17.2799     7.9632 C0            1 RES     
    3312 C0         -49.0213   -12.6501    13.9876 C0            1 RES     
    3313 C0         -47.7257   -12.0254    13.3431 C0            1 RES     
    3314 C0         -47.4598   -10.4991    13.2286 C0            1 RES     
    3315 C0         -47.9962    -9.7246    11.9802 C0            1 RES     
    3316 C0         -46.9864    -8.5873    11.6311 C0            1 RES     
    3317 C0         -47.3047    -7.7032    10.4057 C0            1 RES     
    3318 C0         -46.0714    -6.8239    10.0791 C0            1 RES     
    3319 C0         -46.2968    -5.8615     8.9139 C0            1 RES     
    3320 H4         -50.6228   -12.4459    16.2142 H4            1 RES     
    3321 H5         -50.1340   -10.5733    17.1579 H5            1 RES     
    3322 H4         -49.9003   -17.8081    16.7573 H4            1 RES     
    3323 H6         -51.9583   -15.4074    13.6319 H6            1 RES     
    3324 H6         -50.5179   -16.4969    13.9360 H6            1 RES     
    3325 H6         -53.2460   -17.4792    13.8597 H6            1 RES     
    3326 H6         -51.1218   -19.5240    13.6836 H6            1 RES     
    3327 H6         -50.8513   -18.6562    15.1241 H6            1 RES     
    3328 H6         -53.3647   -18.9746    15.7194 H6            1 RES     
    3329 H6         -53.4715   -19.9853    14.2223 H6            1 RES     
    3330 H6         -51.7150   -21.5513    15.2817 H6            1 RES     
    3331 H6         -51.7703   -20.4973    16.7497 H6            1 RES     
    3332 H6         -54.1122   -22.0731    15.4809 H6            1 RES     
    3333 H6         -54.2981   -20.9242    16.8631 H6            1 RES     
    3334 H6         -52.5489   -23.4663    16.9288 H6            1 RES     
    3335 H6         -52.8040   -22.2865    18.2751 H6            1 RES     
    3336 H6         -55.2744   -22.7855    18.2284 H6            1 RES     
    3337 H6         -54.9921   -23.9905    16.9101 H6            1 RES     
    3338 H6         -54.2878   -24.2601    18.5487 H6            1 RES     
    3339 H6         -52.3139   -16.6411    11.7937 H6            1 RES     
    3340 H6         -50.7308   -17.4289    12.0267 H6            1 RES     
    3341 H6         -53.2905   -18.9404    11.1872 H6            1 RES     
    3342 H6         -52.0633   -18.1381    10.1822 H6            1 RES     
    3343 H6         -50.2357   -19.5890    11.2056 H6            1 RES     
    3344 H6         -51.5482   -20.6744    11.8070 H6            1 RES     
    3345 H6         -52.3387   -20.8389     9.3132 H6            1 RES     
    3346 H6         -50.9916   -19.7383     8.9104 H6            1 RES     
    3347 H6         -49.3661   -21.4476     9.9037 H6            1 RES     
    3348 H6         -50.7382   -22.6094     9.9095 H6            1 RES     
    3349 H6         -49.2511   -22.8402     7.9201 H6            1 RES     
    3350 H6         -49.4391   -21.0999     7.5199 H6            1 RES     
    3351 H6         -51.8394   -21.4543     6.9614 H6            1 RES     
    3352 H6         -51.6951   -23.2051     7.3978 H6            1 RES     
    3353 H6         -49.9787   -23.5107     5.5939 H6            1 RES     
    3354 H6         -50.1005   -21.7591     5.1688 H6            1 RES     
    3355 H6         -51.5152   -22.8478     4.9264 H6            1 RES     
    3356 H6         -49.2557   -14.4728    16.3135 H6            1 RES     
    3357 H6         -49.0590   -15.9772    15.4293 H6            1 RES     
    3358 H6         -47.8356   -14.3871    14.3831 H6            1 RES     
    3359 H6         -50.1709   -14.9083    12.4322 H6            1 RES     
    3360 H6         -48.8146   -16.0520    12.9244 H6            1 RES     
    3361 H6         -48.5729   -13.5907    11.1978 H6            1 RES     
    3362 H6         -47.2097   -14.6362    11.8538 H6            1 RES     
    3363 H6         -47.6367   -15.1554     9.6057 H6            1 RES     
    3364 H6         -48.2377   -16.5659    10.5428 H6            1 RES     
    3365 H6         -49.9991   -14.2189     9.5247 H6            1 RES     
    3366 H6         -50.6088   -15.7901    10.1416 H6            1 RES     
    3367 H6         -48.9017   -15.2553     7.5938 H6            1 RES     
    3368 H6         -50.6820   -15.4993     7.6179 H6            1 RES     
    3369 H6         -49.5046   -17.5398     6.8835 H6            1 RES     
    3370 H6         -50.4190   -17.7739     8.4122 H6            1 RES     
    3371 H6         -48.6119   -17.6334     8.4466 H6            1 RES     
    3372 H6         -49.9682   -12.3501    13.4876 H6            1 RES     
    3373 H6         -48.9911   -12.2114    14.9981 H6            1 RES     
    3374 H6         -46.9104   -12.3938    14.0023 H6            1 RES     
    3375 H6         -47.4744   -12.3948    12.3546 H6            1 RES     
    3376 H6         -46.3552   -10.5006    13.0892 H6            1 RES     
    3377 H6         -47.6397    -9.9465    14.1739 H6            1 RES     
    3378 H6         -49.0249    -9.3454    12.1639 H6            1 RES     
    3379 H6         -48.0213   -10.3955    11.0939 H6            1 RES     
    3380 H6         -46.0169    -9.0881    11.4090 H6            1 RES     
    3381 H6         -46.8428    -7.9249    12.5117 H6            1 RES     
    3382 H6         -48.1881    -7.0658    10.6257 H6            1 RES     
    3383 H6         -47.5264    -8.3349     9.5182 H6            1 RES     
    3384 H6         -45.2160    -7.4855     9.8137 H6            1 RES     
    3385 H6         -45.7838    -6.2243    10.9697 H6            1 RES     
    3386 H6         -47.0976    -5.1340     9.1611 H6            1 RES     
    3387 H6         -46.5646    -6.4131     7.9888 H6            1 RES     
    3388 H6         -45.3585    -5.2938     8.7214 H6            1 RES     
    3389 C0         -46.4380   -23.8035    23.2832 C0            1 RES     
    3390 C1         -46.9450   -23.3182    24.4563 C1            1 RES     
    3391 C1         -48.2908   -23.3614    24.5171 C1            1 RES     
    3392 C1         -48.8044   -23.8018    23.4113 C1            1 RES     
    3393 C1         -47.7411   -24.1004    22.4362 C1            1 RES     
    3394 C1         -48.1849   -23.0427    21.4369 C1            1 RES     
    3395 C1         -49.4506   -22.5502    21.5727 C1            1 RES     
    3396 S2         -50.4257   -23.4143    22.8506 S2            1 RES     
    3397 C1         -49.9785   -21.3590    20.7839 C1            1 RES     
    3398 C1         -49.3111   -20.8914    19.6136 C1            1 RES     
    3399 N3         -49.7631   -19.8100    18.9146 N3            1 RES     
    3400 C1         -50.8505   -19.0990    19.2879 C1            1 RES     
    3401 C1         -51.5412   -19.4810    20.4311 C1            1 RES     
    3402 C1         -51.1124   -20.6187    21.1805 C1            1 RES     
    3403 N3         -51.8629   -20.8850    22.2865 N3            1 RES     
    3404 S2         -53.0108   -19.6911    22.2485 S2            1 RES     
    3405 N3         -52.6269   -18.8188    20.8996 N3            1 RES     
    3406 S2         -48.9257   -22.6535    25.8944 S2            1 RES     
    3407 C1         -47.3885   -22.2645    26.4886 C1            1 RES     
    3408 C1         -46.4055   -22.6534    25.5704 C1            1 RES     
    3409 C0         -45.5469   -25.0835    23.6604 C0            1 RES     
    3410 C0         -45.1751   -26.0915    24.8605 C0            1 RES     
    3411 C0         -44.7431   -25.4329    26.2085 C0            1 RES     
    3412 C0         -45.6554   -25.8813    27.3659 C0            1 RES     
    3413 C0         -45.4111   -25.1325    28.6885 C0            1 RES     
    3414 C0         -46.2964   -25.7413    29.7928 C0            1 RES     
    3415 C0         -46.2698   -24.9330    31.0960 C0            1 RES     
    3416 C0         -47.1370   -25.6049    32.1631 C0            1 RES     
    3417 C0         -43.9905   -26.9862    24.2818 C0            1 RES     
    3418 C0         -43.2250   -28.1289    25.0201 C0            1 RES     
    3419 C0         -42.0495   -27.7201    25.9599 C0            1 RES     
    3420 C0         -40.9633   -28.8368    26.0367 C0            1 RES     
    3421 C0         -39.7266   -28.4422    26.8704 C0            1 RES     
    3422 C0         -38.4583   -29.2792    26.5598 C0            1 RES     
    3423 C0         -38.5943   -30.7943    26.7696 C0            1 RES     
    3424 C0         -37.2656   -31.5029    26.4732 C0            1 RES     
    3425 C0         -45.3503   -22.8349    22.6111 C0            1 RES     
    3426 C0         -44.3689   -23.1684    21.3415 C0            1 RES     
    3427 C0         -43.3948   -24.3847    21.6109 C0            1 RES     
    3428 C0         -42.2144   -24.6160    20.6730 C0            1 RES     
    3429 C0         -41.2308   -25.7182    21.1060 C0            1 RES     
    3430 C0         -41.8019   -27.1411    20.9347 C0            1 RES     
    3431 C0         -40.6943   -28.2076    20.8607 C0            1 RES     
    3432 C0         -39.9177   -28.3785    22.1548 C0            1 RES     
    3433 C0         -44.9513   -23.1460    19.8553 C0            1 RES     
    3434 C0         -43.8813   -22.6317    18.8186 C0            1 RES     
    3435 C0         -44.1881   -22.3383    17.3242 C0            1 RES     
    3436 C0         -44.0833   -23.5007    16.2832 C0            1 RES     
    3437 C0         -43.5831   -22.9093    14.9285 C0            1 RES     
    3438 C0         -43.3803   -23.8909    13.7540 C0            1 RES     
    3439 C0         -42.6426   -23.1614    12.6032 C0            1 RES     
    3440 C0         -42.4407   -24.0263    11.3598 C0            1 RES     
    3441 H4         -47.5106   -22.6411    20.7268 H4            1 RES     
    3442 H5         -48.4380   -21.3968    19.2343 H5            1 RES     
    3443 H4         -45.3614   -22.4273    25.7173 H4            1 RES     
    3444 H6         -45.7689   -25.7738    22.8187 H6            1 RES     
    3445 H6         -44.5471   -24.6987    23.6587 H6            1 RES     
    3446 H6         -46.0444   -26.7607    25.0441 H6            1 RES     
    3447 H6         -43.6981   -25.6749    26.4726 H6            1 RES     
    3448 H6         -44.7120   -24.3534    26.1161 H6            1 RES     
    3449 H6         -46.7158   -25.7057    27.0800 H6            1 RES     
    3450 H6         -45.5001   -26.9723    27.5184 H6            1 RES     
    3451 H6         -44.3446   -25.2007    28.9970 H6            1 RES     
    3452 H6         -45.6718   -24.0614    28.5390 H6            1 RES     
    3453 H6         -45.9495   -26.7802    29.9912 H6            1 RES     
    3454 H6         -47.3503   -25.7804    29.4406 H6            1 RES     
    3455 H6         -45.2308   -24.8439    31.4795 H6            1 RES     
    3456 H6         -46.6694   -23.9135    30.9011 H6            1 RES     
    3457 H6         -48.1830   -25.7158    31.8037 H6            1 RES     
    3458 H6         -46.7334   -26.6106    32.4098 H6            1 RES     
    3459 H6         -47.1462   -24.9910    33.0881 H6            1 RES     
    3460 H6         -44.4357   -27.4829    23.3919 H6            1 RES     
    3461 H6         -43.1818   -26.3222    23.9031 H6            1 RES     
    3462 H6         -43.8985   -28.8776    25.4835 H6            1 RES     
    3463 H6         -42.7208   -28.6450    24.1725 H6            1 RES     
    3464 H6         -41.5360   -26.8356    25.5196 H6            1 RES     
    3465 H6         -42.4216   -27.4500    26.9690 H6            1 RES     
    3466 H6         -41.3846   -29.7925    26.4138 H6            1 RES     
    3467 H6         -40.6022   -29.0109    25.0119 H6            1 RES     
    3468 H6         -39.4449   -27.3949    26.6243 H6            1 RES     
    3469 H6         -39.9790   -28.4842    27.9512 H6            1 RES     
    3470 H6         -37.6352   -28.9025    27.2066 H6            1 RES     
    3471 H6         -38.1630   -29.0993    25.5017 H6            1 RES     
    3472 H6         -39.3673   -31.1995    26.0828 H6            1 RES     
    3473 H6         -38.8883   -31.0084    27.8180 H6            1 RES     
    3474 H6         -36.4706   -31.1457    27.1631 H6            1 RES     
    3475 H6         -36.9409   -31.3130    25.4269 H6            1 RES     
    3476 H6         -37.3794   -32.5993    26.6095 H6            1 RES     
    3477 H6         -45.8687   -21.8800    22.3738 H6            1 RES     
    3478 H6         -44.6345   -22.5624    23.4201 H6            1 RES     
    3479 H6         -43.7247   -22.2630    21.3703 H6            1 RES     
    3480 H6         -43.9685   -25.3307    21.6164 H6            1 RES     
    3481 H6         -42.9008   -24.1866    22.5862 H6            1 RES     
    3482 H6         -42.5810   -24.9408    19.6834 H6            1 RES     
    3483 H6         -41.6451   -23.6630    20.6176 H6            1 RES     
    3484 H6         -40.3740   -25.6240    20.4057 H6            1 RES     
    3485 H6         -40.8483   -25.5486    22.1372 H6            1 RES     
    3486 H6         -42.3205   -27.1962    19.9542 H6            1 RES     
    3487 H6         -42.5453   -27.3749    21.7258 H6            1 RES     
    3488 H6         -39.9879   -27.9430    20.0440 H6            1 RES     
    3489 H6         -41.1567   -29.1862    20.6077 H6            1 RES     
    3490 H6         -39.1314   -29.1515    22.0169 H6            1 RES     
    3491 H6         -40.6211   -28.7239    22.9257 H6            1 RES     
    3492 H6         -39.4312   -27.4336    22.4724 H6            1 RES     
    3493 H6         -45.4171   -24.1186    19.5837 H6            1 RES     
    3494 H6         -45.7114   -22.3505    19.7915 H6            1 RES     
    3495 H6         -43.5798   -21.6452    19.2321 H6            1 RES     
    3496 H6         -42.9635   -23.2083    18.7738 H6            1 RES     
    3497 H6         -43.3302   -21.6747    17.0727 H6            1 RES     
    3498 H6         -45.0970   -21.7201    17.1722 H6            1 RES     
    3499 H6         -45.0546   -24.0330    16.1879 H6            1 RES     
    3500 H6         -43.3102   -24.2333    16.6024 H6            1 RES     
    3501 H6         -42.5847   -22.4605    15.1337 H6            1 RES     
    3502 H6         -44.2667   -22.0999    14.5932 H6            1 RES     
    3503 H6         -44.3675   -24.2647    13.4063 H6            1 RES     
    3504 H6         -42.7583   -24.7553    14.0732 H6            1 RES     
    3505 H6         -41.6382   -22.8424    12.9628 H6            1 RES     
    3506 H6         -43.2086   -22.2534    12.3024 H6            1 RES     
    3507 H6         -43.4200   -24.3123    10.9232 H6            1 RES     
    3508 H6         -41.8574   -24.9392    11.6010 H6            1 RES     
    3509 H6         -41.8764   -23.4441    10.5968 H6            1 RES     
    3510 C0         -44.7313   -16.1397    32.8300 C0            1 RES     
    3511 C1         -45.9837   -15.5937    32.8787 C1            1 RES     
    3512 C1         -46.9454   -16.4855    33.1893 C1            1 RES     
    3513 C1         -46.4641   -17.6829    33.3119 C1            1 RES     
    3514 C1         -45.0132   -17.6802    33.0556 C1            1 RES     
    3515 C1         -45.1009   -18.5659    31.8218 C1            1 RES     
    3516 C1         -46.2502   -19.2818    31.6498 C1            1 RES     
    3517 S2         -47.3962   -19.1536    33.0642 S2            1 RES     
    3518 C1         -46.5748   -20.0589    30.3807 C1            1 RES     
    3519 C1         -45.5635   -20.3727    29.4254 C1            1 RES     
    3520 N3         -45.8496   -21.0471    28.2741 N3            1 RES     
    3521 C1         -47.1005   -21.4434    27.9490 C1            1 RES     
    3522 C1         -48.1430   -21.1543    28.8205 C1            1 RES     
    3523 C1         -47.8832   -20.4669    30.0452 C1            1 RES     
    3524 N3         -48.9874   -20.2312    30.8085 N3            1 RES     
    3525 S2         -50.2065   -20.9016    29.9091 S2            1 RES     
    3526 N3         -49.4331   -21.4876    28.5726 N3            1 RES     
    3527 S2         -48.4943   -15.8545    33.1267 S2            1 RES     
    3528 C1         -47.9278   -14.3208    32.6862 C1            1 RES     
    3529 C1         -46.5347   -14.3444    32.5476 C1            1 RES     
    3530 C0         -43.8679   -15.4159    33.9725 C0            1 RES     
    3531 C0         -43.9720   -14.4308    35.2426 C0            1 RES     
    3532 C0         -44.7393   -13.0899    35.0171 C0            1 RES     
    3533 C0         -45.9208   -12.9521    35.9958 C0            1 RES     
    3534 C0         -46.8370   -11.7477    35.7135 C0            1 RES     
    3535 C0         -47.9080   -11.6491    36.8166 C0            1 RES     
    3536 C0         -48.9863   -10.6014    36.5133 C0            1 RES     
    3537 C0         -49.9986   -10.5248    37.6586 C0            1 RES     
    3538 C0         -42.4596   -14.1367    35.6486 C0            1 RES     
    3539 C0         -41.9559   -13.2254    36.8115 C0            1 RES     
    3540 C0         -41.8612   -11.6928    36.5383 C0            1 RES     
    3541 C0         -40.7375   -11.0278    37.3914 C0            1 RES     
    3542 C0         -40.5299    -9.5303    37.0835 C0            1 RES     
    3543 C0         -39.1446    -8.9804    37.5125 C0            1 RES     
    3544 C0         -38.8095    -9.1148    39.0051 C0            1 RES     
    3545 C0         -37.4380    -8.4967    39.3094 C0            1 RES     
    3546 C0         -43.9165   -15.7455    31.5057 C0            1 RES     
    3547 C0         -42.3295   -16.0135    31.1960 C0            1 RES     
    3548 C0         -41.3654   -15.3012    32.2275 C0            1 RES     
    3549 C0         -39.8804   -15.1826    31.9003 C0            1 RES     
    3550 C0         -39.0520   -14.3330    32.8809 C0            1 RES     
    3551 C0         -38.8215   -15.0278    34.2389 C0            1 RES     
    3552 C0         -37.6088   -14.4490    34.9901 C0            1 RES     
    3553 C0         -37.7964   -13.0124    35.4462 C0            1 RES     
    3554 C0         -41.8337   -17.4714    30.7748 C0            1 RES     
    3555 C0         -40.6402   -17.4060    29.7475 C0            1 RES     
    3556 C0         -40.0467   -18.6454    29.0227 C0            1 RES     
    3557 C0         -38.9068   -19.4599    29.7176 C0            1 RES     
    3558 C0         -37.9449   -20.0049    28.6163 C0            1 RES     
    3559 C0         -36.7214   -20.8243    29.0807 C0            1 RES     
    3560 C0         -35.7694   -21.0428    27.8778 C0            1 RES     
    3561 C0         -34.5473   -21.8972    28.2113 C0            1 RES     
    3562 H4         -44.3425   -18.5554    31.0835 H4            1 RES     
    3563 H5         -44.5345   -20.1029    29.5989 H5            1 RES     
    3564 H4         -45.9785   -13.4901    32.1956 H4            1 RES     
    3565 H6         -43.2525   -16.2552    34.3614 H6            1 RES     
    3566 H6         -43.3101   -14.6782    33.4317 H6            1 RES     
    3567 H6         -44.4452   -14.9844    36.0833 H6            1 RES     
    3568 H6         -44.0816   -12.2103    35.1363 H6            1 RES     
    3569 H6         -45.0590   -12.9990    33.9856 H6            1 RES     
    3570 H6         -46.5514   -13.8662    35.9332 H6            1 RES     
    3571 H6         -45.5036   -12.8730    37.0240 H6            1 RES     
    3572 H6         -46.2556   -10.7998    35.6838 H6            1 RES     
    3573 H6         -47.3224   -11.9000    34.7242 H6            1 RES     
    3574 H6         -47.4041   -11.3984    37.7770 H6            1 RES     
    3575 H6         -48.4141   -12.6329    36.9279 H6            1 RES     
    3576 H6         -48.5283    -9.5995    36.3695 H6            1 RES     
    3577 H6         -49.5220   -10.8885    35.5818 H6            1 RES     
    3578 H6         -50.4683   -11.5172    37.8319 H6            1 RES     
    3579 H6         -49.4970   -10.1963    38.5942 H6            1 RES     
    3580 H6         -50.7984    -9.7955    37.4114 H6            1 RES     
    3581 H6         -42.0420   -15.1403    35.8841 H6            1 RES     
    3582 H6         -41.9072   -13.7646    34.7571 H6            1 RES     
    3583 H6         -42.4345   -13.4545    37.7849 H6            1 RES     
    3584 H6         -40.8936   -13.5454    36.9031 H6            1 RES     
    3585 H6         -41.5587   -11.5408    35.4775 H6            1 RES     
    3586 H6         -42.8394   -11.1974    36.7041 H6            1 RES     
    3587 H6         -40.9106   -11.1701    38.4790 H6            1 RES     
    3588 H6         -39.7929   -11.5300    37.1338 H6            1 RES     
    3589 H6         -40.5684    -9.3798    35.9824 H6            1 RES     
    3590 H6         -41.3532    -8.9403    37.5390 H6            1 RES     
    3591 H6         -39.1048    -7.9039    37.2340 H6            1 RES     
    3592 H6         -38.3560    -9.5073    36.9297 H6            1 RES     
    3593 H6         -38.7793   -10.1885    39.2868 H6            1 RES     
    3594 H6         -39.5787    -8.5981    39.6158 H6            1 RES     
    3595 H6         -37.4371    -7.4115    39.0688 H6            1 RES     
    3596 H6         -36.6399    -8.9937    38.7161 H6            1 RES     
    3597 H6         -37.1969    -8.6157    40.3871 H6            1 RES     
    3598 H6         -44.4853   -16.1530    30.6413 H6            1 RES     
    3599 H6         -44.0127   -14.6408    31.3987 H6            1 RES     
    3600 H6         -42.2308   -15.4346    30.2522 H6            1 RES     
    3601 H6         -41.4208   -15.8122    33.2073 H6            1 RES     
    3602 H6         -41.6911   -14.2406    32.2871 H6            1 RES     
    3603 H6         -39.4102   -16.1814    31.9288 H6            1 RES     
    3604 H6         -39.8000   -14.7094    30.8977 H6            1 RES     
    3605 H6         -38.0588   -14.2280    32.3952 H6            1 RES     
    3606 H6         -39.4794   -13.3132    33.0066 H6            1 RES     
    3607 H6         -38.5625   -16.0912    34.0504 H6            1 RES     
    3608 H6         -39.7396   -15.0073    34.8631 H6            1 RES     
    3609 H6         -36.7122   -14.5095    34.3356 H6            1 RES     
    3610 H6         -37.4160   -15.0713    35.8908 H6            1 RES     
    3611 H6         -36.8774   -12.6643    35.9650 H6            1 RES     
    3612 H6         -38.6331   -12.9926    36.1590 H6            1 RES     
    3613 H6         -37.9996   -12.3318    34.5942 H6            1 RES     
    3614 H6         -41.6341   -18.1084    31.6642 H6            1 RES     
    3615 H6         -42.6191   -17.9422    30.1616 H6            1 RES     
    3616 H6         -41.0467   -16.7796    28.9245 H6            1 RES     
    3617 H6         -39.7588   -16.8762    30.0928 H6            1 RES     
    3618 H6         -39.5378   -18.1487    28.1661 H6            1 RES     
    3619 H6         -40.8167   -19.3040    28.5702 H6            1 RES     
    3620 H6         -39.3308   -20.2655    30.3557 H6            1 RES     
    3621 H6         -38.2920   -18.7904    30.3580 H6            1 RES     
    3622 H6         -37.5385   -19.1130    28.0876 H6            1 RES     
    3623 H6         -38.5156   -20.6145    27.8830 H6            1 RES     
    3624 H6         -37.0603   -21.8007    29.4894 H6            1 RES     
    3625 H6         -36.1636   -20.2756    29.8705 H6            1 RES     
    3626 H6         -35.4056   -20.0529    27.5205 H6            1 RES     
    3627 H6         -36.3154   -21.5342    27.0437 H6            1 RES     
    3628 H6         -34.8585   -22.9204    28.5071 H6            1 RES     
    3629 H6         -33.9509   -21.4369    29.0263 H6            1 RES     
    3630 H6         -33.8999   -21.9777    27.3090 H6            1 RES     
    3631 C0         -52.2166    -7.2019    28.7220 C0            1 RES     
    3632 C1         -53.3229    -7.9639    28.4684 C1            1 RES     
    3633 C1         -53.8565    -8.5188    29.5748 C1            1 RES     
    3634 C1         -53.1538    -8.2491    30.6302 C1            1 RES     
    3635 C1         -51.9838    -7.4290    30.2705 C1            1 RES     
    3636 C1         -50.9622    -8.4792    30.6802 C1            1 RES     
    3637 C1         -51.3959    -9.4853    31.4942 C1            1 RES     
    3638 S2         -53.1110    -9.2537    32.0732 S2            1 RES     
    3639 C1         -50.5582   -10.7107    31.8359 C1            1 RES     
    3640 C1         -49.1503   -10.7317    31.6100 C1            1 RES     
    3641 N3         -48.3958   -11.8337    31.8903 N3            1 RES     
    3642 C1         -48.9245   -12.9790    32.3763 C1            1 RES     
    3643 C1         -50.2939   -13.0423    32.6020 C1            1 RES     
    3644 C1         -51.1164   -11.9046    32.3399 C1            1 RES     
    3645 N3         -52.4429   -12.0942    32.5892 N3            1 RES     
    3646 S2         -52.4962   -13.6609    33.1252 S2            1 RES     
    3647 N3         -50.9204   -14.1518    33.0639 N3            1 RES     
    3648 S2         -55.1332    -9.5543    29.2600 S2            1 RES     
    3649 C1         -55.0328    -9.2845    27.5913 C1            1 RES     
    3650 C1         -53.9656    -8.4238    27.3068 C1            1 RES     
    3651 C0         -52.5804    -5.7012    28.2860 C0            1 RES     
    3652 C0         -53.7950    -4.7452    27.8328 C0            1 RES     
    3653 C0         -54.6874    -5.2677    26.6631 C0            1 RES     
    3654 C0         -56.1637    -5.3697    27.0907 C0            1 RES     
    3655 C0         -57.0750    -6.0527    26.0550 C0            1 RES     
    3656 C0         -58.5359    -5.9946    26.5407 C0            1 RES     
    3657 C0         -59.4898    -6.8242    25.6722 C0            1 RES     
    3658 C0         -60.9275    -6.6984    26.1817 C0            1 RES     
    3659 C0         -53.0954    -3.3745    27.4199 C0            1 RES     
    3660 C0         -53.7923    -2.0842    26.8850 C0            1 RES     
    3661 C0         -54.1238    -2.0213    25.3624 C0            1 RES     
    3662 C0         -54.1067    -0.5542    24.8331 C0            1 RES     
    3663 C0         -54.3251    -0.4423    23.3099 C0            1 RES     
    3664 C0         -53.8228     0.8890    22.6929 C0            1 RES     
    3665 C0         -54.4540     2.1665    23.2653 C0            1 RES     
    3666 C0         -53.9101     3.4081    22.5455 C0            1 RES     
    3667 C0         -50.9808    -7.5327    27.7543 C0            1 RES     
    3668 C0         -49.5831    -6.6905    27.6003 C0            1 RES     
    3669 C0         -49.8044    -5.2007    27.1182 C0            1 RES     
    3670 C0         -48.6098    -4.3930    26.6211 C0            1 RES     
    3671 C0         -48.9454    -3.0161    26.0203 C0            1 RES     
    3672 C0         -49.3605    -1.9768    27.0823 C0            1 RES     
    3673 C0         -49.1870    -0.5316    26.5811 C0            1 RES     
    3674 C0         -50.1274    -0.1564    25.4489 C0            1 RES     
    3675 C0         -48.4409    -6.8307    28.7068 C0            1 RES     
    3676 C0         -47.0014    -6.7296    28.0732 C0            1 RES     
    3677 C0         -45.6854    -6.9911    28.8564 C0            1 RES     
    3678 C0         -45.0144    -5.8108    29.6327 C0            1 RES     
    3679 C0         -43.4662    -5.9990    29.5790 C0            1 RES     
    3680 C0         -42.5937    -4.9257    30.2654 C0            1 RES     
    3681 C0         -41.1106    -5.1521    29.8780 C0            1 RES     
    3682 C0         -40.1460    -4.1775    30.5521 C0            1 RES     
    3683 H4         -49.9836    -8.4797    30.2769 H4            1 RES     
    3684 H5         -48.6370    -9.8635    31.2298 H5            1 RES     
    3685 H4         -53.6762    -8.1832    26.2962 H4            1 RES     
    3686 H6         -52.0793    -5.1044    29.0779 H6            1 RES     
    3687 H6         -52.1312    -5.6085    27.3179 H6            1 RES     
    3688 H6         -54.4368    -4.5428    28.7183 H6            1 RES     
    3689 H6         -54.6252    -4.6183    25.7716 H6            1 RES     
    3690 H6         -54.3120    -6.2118    26.2857 H6            1 RES     
    3691 H6         -56.2289    -5.9645    28.0284 H6            1 RES     
    3692 H6         -56.5316    -4.3394    27.2923 H6            1 RES     
    3693 H6         -57.0001    -5.5535    25.0638 H6            1 RES     
    3694 H6         -56.7517    -7.1116    25.9467 H6            1 RES     
    3695 H6         -58.8649    -4.9313    26.5449 H6            1 RES     
    3696 H6         -58.5951    -6.3883    27.5789 H6            1 RES     
    3697 H6         -59.4511    -6.4847    24.6151 H6            1 RES     
    3698 H6         -59.1874    -7.8936    25.7173 H6            1 RES     
    3699 H6         -60.9960    -7.0238    27.2424 H6            1 RES     
    3700 H6         -61.2716    -5.6444    26.1063 H6            1 RES     
    3701 H6         -61.6038    -7.3355    25.5740 H6            1 RES     
    3702 H6         -52.5779    -3.0441    28.3473 H6            1 RES     
    3703 H6         -52.3002    -3.5811    26.6694 H6            1 RES     
    3704 H6         -54.6389    -1.7503    27.5181 H6            1 RES     
    3705 H6         -52.9882    -1.3253    27.0138 H6            1 RES     
    3706 H6         -53.3182    -2.5486    24.8031 H6            1 RES     
    3707 H6         -55.0916    -2.5168    25.1446 H6            1 RES     
    3708 H6         -54.8419     0.0829    25.3686 H6            1 RES     
    3709 H6         -53.1036    -0.1480    25.0320 H6            1 RES     
    3710 H6         -53.7325    -1.2342    22.8015 H6            1 RES     
    3711 H6         -55.3972    -0.6128    23.0753 H6            1 RES     
    3712 H6         -54.0212     0.8531    21.5987 H6            1 RES     
    3713 H6         -52.7202     0.9527    22.8322 H6            1 RES     
    3714 H6         -54.2096     2.2534    24.3451 H6            1 RES     
    3715 H6         -55.5563     2.1348    23.1414 H6            1 RES     
    3716 H6         -54.1622     3.3734    21.4634 H6            1 RES     
    3717 H6         -52.8054     3.4746    22.6519 H6            1 RES     
    3718 H6         -54.3583     4.3272    22.9792 H6            1 RES     
    3719 H6         -50.6982    -8.5923    27.9394 H6            1 RES     
    3720 H6         -51.3897    -7.5369    26.7180 H6            1 RES     
    3721 H6         -49.1492    -7.2219    26.7257 H6            1 RES     
    3722 H6         -50.2553    -4.6053    27.9345 H6            1 RES     
    3723 H6         -50.4596    -5.2503    26.2222 H6            1 RES     
    3724 H6         -47.9305    -4.1731    27.4634 H6            1 RES     
    3725 H6         -48.1136    -4.9922    25.8272 H6            1 RES     
    3726 H6         -47.9923    -2.6626    25.5729 H6            1 RES     
    3727 H6         -49.6971    -3.0940    25.2035 H6            1 RES     
    3728 H6         -48.6718    -2.0654    27.9491 H6            1 RES     
    3729 H6         -50.3922    -2.1640    27.4477 H6            1 RES     
    3730 H6         -48.1369    -0.3859    26.2462 H6            1 RES     
    3731 H6         -49.3749     0.1649    27.4267 H6            1 RES     
    3732 H6         -49.9315     0.8915    25.1351 H6            1 RES     
    3733 H6         -51.1562    -0.2244    25.8301 H6            1 RES     
    3734 H6         -49.9981    -0.8182    24.5681 H6            1 RES     
    3735 H6         -48.6118    -6.1393    29.5609 H6            1 RES     
    3736 H6         -48.4402    -7.8689    29.0764 H6            1 RES     
    3737 H6         -47.0119    -7.5180    27.2901 H6            1 RES     
    3738 H6         -46.7924    -5.8084    27.5397 H6            1 RES     
    3739 H6         -44.9878    -7.1873    28.0112 H6            1 RES     
    3740 H6         -45.7032    -7.9277    29.4511 H6            1 RES     
    3741 H6         -45.4048    -5.7503    30.6718 H6            1 RES     
    3742 H6         -45.2242    -4.8463    29.1210 H6            1 RES     
    3743 H6         -43.1871    -5.9830    28.5010 H6            1 RES     
    3744 H6         -43.1907    -6.9917    29.9955 H6            1 RES     
    3745 H6         -42.7210    -4.9912    31.3675 H6            1 RES     
    3746 H6         -42.8904    -3.9092    29.9268 H6            1 RES     
    3747 H6         -41.0024    -5.0312    28.7764 H6            1 RES     
    3748 H6         -40.7996    -6.1848    30.1465 H6            1 RES     
    3749 H6         -40.1675    -4.3100    31.6536 H6            1 RES     
    3750 H6         -40.3985    -3.1274    30.2963 H6            1 RES     
    3751 H6         -39.1108    -4.3829    30.1972 H6            1 RES     
    3752 C0         -58.2248   -14.1780    20.4743 C0            1 RES     
    3753 C1         -58.5615   -15.2182    21.2949 C1            1 RES     
    3754 C1         -59.4079   -14.8685    22.2838 C1            1 RES     
    3755 C1         -59.6632   -13.5977    22.2661 C1            1 RES     
    3756 C1         -58.9276   -12.9429    21.1703 C1            1 RES     
    3757 C1         -58.0776   -12.0770    22.0880 C1            1 RES     
    3758 C1         -58.5086   -11.9230    23.3739 C1            1 RES     
    3759 S2         -60.1474   -12.6665    23.6773 S2            1 RES     
    3760 C1         -57.6808   -11.2547    24.4638 C1            1 RES     
    3761 C1         -56.5509   -10.4456    24.1443 C1            1 RES     
    3762 N3         -55.7890    -9.8629    25.1151 N3            1 RES     
    3763 C1         -56.0341   -10.0255    26.4345 C1            1 RES     
    3764 C1         -57.1060   -10.8186    26.8245 C1            1 RES     
    3765 C1         -57.9396   -11.4309    25.8397 C1            1 RES     
    3766 N3         -58.9494   -12.1935    26.3461 N3            1 RES     
    3767 S2         -58.7376   -12.0450    27.9824 S2            1 RES     
    3768 N3         -57.4178   -11.0616    28.1208 N3            1 RES     
    3769 S2         -59.7252   -16.1044    23.3669 S2            1 RES     
    3770 C1         -58.7317   -17.1895    22.5286 C1            1 RES     
    3771 C1         -58.1290   -16.5470    21.4402 C1            1 RES     
    3772 C0         -58.7652   -14.5517    19.0105 C0            1 RES     
    3773 C0         -59.6886   -15.5936    18.2004 C0            1 RES     
    3774 C0         -59.4026   -17.1085    18.4471 C0            1 RES     
    3775 C0         -60.6587   -17.8367    18.9616 C0            1 RES     
    3776 C0         -60.4088   -19.2893    19.4055 C0            1 RES     
    3777 C0         -61.7488   -19.9453    19.7896 C0            1 RES     
    3778 C0         -61.5771   -21.3267    20.4337 C0            1 RES     
    3779 C0         -62.9404   -21.9412    20.7592 C0            1 RES     
    3780 C0         -59.4521   -15.2326    16.6666 C0            1 RES     
    3781 C0         -60.0870   -15.9332    15.4246 C0            1 RES     
    3782 C0         -59.4086   -17.2386    14.9070 C0            1 RES     
    3783 C0         -59.6131   -17.4198    13.3715 C0            1 RES     
    3784 C0         -58.8733   -18.6414    12.7876 C0            1 RES     
    3785 C0         -58.6350   -18.5670    11.2569 C0            1 RES     
    3786 C0         -59.8981   -18.4353    10.3934 C0            1 RES     
    3787 C0         -59.5345   -18.4165     8.9024 C0            1 RES     
    3788 C0         -56.6461   -14.0548    20.2182 C0            1 RES     
    3789 C0         -55.8856   -13.0935    19.1301 C0            1 RES     
    3790 C0         -56.2941   -13.4030    17.6340 C0            1 RES     
    3791 C0         -55.4524   -12.8305    16.4980 C0            1 RES     
    3792 C0         -55.8264   -13.3176    15.0865 C0            1 RES     
    3793 C0         -57.1507   -12.7178    14.5699 C0            1 RES     
    3794 C0         -57.2551   -12.7738    13.0350 C0            1 RES     
    3795 C0         -57.3566   -14.1826    12.4766 C0            1 RES     
    3796 C0         -55.7140   -11.5341    19.4258 C0            1 RES     
    3797 C0         -54.3570   -10.9782    18.8484 C0            1 RES     
    3798 C0         -53.8210    -9.5441    19.1128 C0            1 RES     
    3799 C0         -54.2632    -8.3799    18.1668 C0            1 RES     
    3800 C0         -53.0791    -7.3722    18.0341 C0            1 RES     
    3801 C0         -53.2859    -6.1463    17.1185 C0            1 RES     
    3802 C0         -51.9286    -5.4260    16.9188 C0            1 RES     
    3803 C0         -52.0271    -4.1575    16.0727 C0            1 RES     
    3804 H4         -57.1464   -11.6882    21.7686 H4            1 RES     
    3805 H5         -56.2792   -10.2530    23.1192 H5            1 RES     
    3806 H4         -57.3960   -17.0367    20.8189 H4            1 RES     
    3807 H6         -59.1205   -13.5668    18.6387 H6            1 RES     
    3808 H6         -57.8920   -14.9191    18.5102 H6            1 RES     
    3809 H6         -60.7546   -15.3810    18.4363 H6            1 RES     
    3810 H6         -59.0521   -17.6191    17.5322 H6            1 RES     
    3811 H6         -58.5608   -17.2363    19.1176 H6            1 RES     
    3812 H6         -61.0597   -17.2885    19.8425 H6            1 RES     
    3813 H6         -61.4192   -17.8181    18.1500 H6            1 RES     
    3814 H6         -59.9329   -19.8808    18.5925 H6            1 RES     
    3815 H6         -59.7260   -19.2757    20.2837 H6            1 RES     
    3816 H6         -62.3734   -20.0363    18.8728 H6            1 RES     
    3817 H6         -62.2813   -19.2962    20.5186 H6            1 RES     
    3818 H6         -61.0272   -22.0102    19.7518 H6            1 RES     
    3819 H6         -60.9991   -21.2196    21.3778 H6            1 RES     
    3820 H6         -63.5185   -21.2740    21.4347 H6            1 RES     
    3821 H6         -63.5233   -22.1005    19.8265 H6            1 RES     
    3822 H6         -62.8056   -22.9210    21.2636 H6            1 RES     
    3823 H6         -59.7808   -14.1733    16.5836 H6            1 RES     
    3824 H6         -58.3602   -15.2436    16.4523 H6            1 RES     
    3825 H6         -61.1898   -16.0253    15.4911 H6            1 RES     
    3826 H6         -59.8839   -15.1909    14.6203 H6            1 RES     
    3827 H6         -58.3083   -17.1465    15.0517 H6            1 RES     
    3828 H6         -59.7686   -18.1244    15.4687 H6            1 RES     
    3829 H6         -60.6900   -17.4665    13.1045 H6            1 RES     
    3830 H6         -59.1838   -16.5344    12.8790 H6            1 RES     
    3831 H6         -57.8556   -18.6933    13.2328 H6            1 RES     
    3832 H6         -59.4159   -19.5704    13.0635 H6            1 RES     
    3833 H6         -58.0897   -19.4877    10.9523 H6            1 RES     
    3834 H6         -57.9735   -17.6981    11.0410 H6            1 RES     
    3835 H6         -60.4212   -17.4866    10.6376 H6            1 RES     
    3836 H6         -60.5807   -19.2890    10.5849 H6            1 RES     
    3837 H6         -59.0346   -19.3656     8.6108 H6            1 RES     
    3838 H6         -58.8524   -17.5693     8.6724 H6            1 RES     
    3839 H6         -60.4525   -18.3021     8.2876 H6            1 RES     
    3840 H6         -56.1714   -13.8606    21.2049 H6            1 RES     
    3841 H6         -56.2951   -15.0758    19.9433 H6            1 RES     
    3842 H6         -54.8503   -13.4831    19.2396 H6            1 RES     
    3843 H6         -57.3291   -13.0585    17.4488 H6            1 RES     
    3844 H6         -56.1844   -14.4998    17.4947 H6            1 RES     
    3845 H6         -55.5751   -11.7338    16.4576 H6            1 RES     
    3846 H6         -54.3981   -13.1282    16.6859 H6            1 RES     
    3847 H6         -55.0165   -12.9335    14.4308 H6            1 RES     
    3848 H6         -55.8222   -14.4283    15.0183 H6            1 RES     
    3849 H6         -57.1680   -11.6360    14.8203 H6            1 RES     
    3850 H6         -58.0266   -13.1938    15.0590 H6            1 RES     
    3851 H6         -56.3698   -12.2687    12.5911 H6            1 RES     
    3852 H6         -58.1616   -12.2141    12.7178 H6            1 RES     
    3853 H6         -57.4138   -14.1395    11.3677 H6            1 RES     
    3854 H6         -58.2841   -14.6304    12.8608 H6            1 RES     
    3855 H6         -56.4823   -14.8034    12.7606 H6            1 RES     
    3856 H6         -56.6119   -10.9572    19.1131 H6            1 RES     
    3857 H6         -55.5572   -11.4005    20.5084 H6            1 RES     
    3858 H6         -53.5936   -11.6419    19.3084 H6            1 RES     
    3859 H6         -54.2236   -11.0983    17.7785 H6            1 RES     
    3860 H6         -52.7431    -9.6888    18.8746 H6            1 RES     
    3861 H6         -53.8527    -9.2503    20.1824 H6            1 RES     
    3862 H6         -55.1953    -7.9020    18.5393 H6            1 RES     
    3863 H6         -54.4519    -8.7683    17.1423 H6            1 RES     
    3864 H6         -52.2292    -7.9451    17.5985 H6            1 RES     
    3865 H6         -52.7758    -7.0097    19.0399 H6            1 RES     
    3866 H6         -54.0263    -5.4575    17.5797 H6            1 RES     
    3867 H6         -53.6605    -6.4650    16.1215 H6            1 RES     
    3868 H6         -51.2223    -6.1206    16.4103 H6            1 RES     
    3869 H6         -51.4951    -5.1494    17.9042 H6            1 RES     
    3870 H6         -52.6685    -3.4045    16.5759 H6            1 RES     
    3871 H6         -52.4340    -4.3825    15.0649 H6            1 RES     
    3872 H6         -51.0105    -3.7209    15.9481 H6            1 RES     
    3873 C0         -54.7954   -25.0759    25.1926 C0            1 RES     
    3874 C1         -55.1500   -24.8545    26.4941 C1            1 RES     
    3875 C1         -56.4766   -24.6911    26.6677 C1            1 RES     
    3876 C1         -57.1128   -24.7209    25.5386 C1            1 RES     
    3877 C1         -56.1685   -24.9109    24.4238 C1            1 RES     
    3878 C1         -56.4563   -23.5618    23.7825 C1            1 RES     
    3879 C1         -57.6025   -22.9245    24.1609 C1            1 RES     
    3880 S2         -58.6595   -23.9336    25.2540 S2            1 RES     
    3881 C1         -57.9386   -21.4928    23.7646 C1            1 RES     
    3882 C1         -57.2515   -20.8383    22.7001 C1            1 RES     
    3883 N3         -57.5291   -19.5478    22.3542 N3            1 RES     
    3884 C1         -58.4491   -18.7978    23.0011 C1            1 RES     
    3885 C1         -59.1447   -19.3600    24.0643 C1            1 RES     
    3886 C1         -58.8978   -20.7139    24.4460 C1            1 RES     
    3887 N3         -59.6327   -21.1464    25.5092 N3            1 RES     
    3888 S2         -60.5424   -19.8161    25.8932 S2            1 RES     
    3889 N3         -60.0677   -18.6827    24.7897 N3            1 RES     
    3890 S2         -56.9065   -24.2939    28.2357 S2            1 RES     
    3891 C1         -55.2983   -24.3406    28.7637 C1            1 RES     
    3892 C1         -54.4469   -24.6187    27.6874 C1            1 RES     
    3893 C0         -54.1379   -26.5385    25.1361 C0            1 RES     
    3894 C0         -53.9024   -27.8838    25.9900 C0            1 RES     
    3895 C0         -53.2951   -27.7003    27.4166 C0            1 RES     
    3896 C0         -54.2198   -28.2929    28.4968 C0            1 RES     
    3897 C0         -53.7815   -27.9862    29.9402 C0            1 RES     
    3898 C0         -54.7115   -28.7205    30.9248 C0            1 RES     
    3899 C0         -54.4769   -28.3164    32.3857 C0            1 RES     
    3900 C0         -55.4026   -29.1034    33.3164 C0            1 RES     
    3901 C0         -52.9301   -28.7674    25.0885 C0            1 RES     
    3902 C0         -52.3541   -30.1783    25.4267 C0            1 RES     
    3903 C0         -51.0814   -30.2417    26.3258 C0            1 RES     
    3904 C0         -50.2162   -31.4992    26.0051 C0            1 RES     
    3905 C0         -48.8910   -31.5570    26.7930 C0            1 RES     
    3906 C0         -47.8136   -32.4731    26.1562 C0            1 RES     
    3907 C0         -48.2155   -33.9440    25.9740 C0            1 RES     
    3908 C0         -47.0544   -34.7523    25.3788 C0            1 RES     
    3909 C0         -53.5806   -24.1523    24.6982 C0            1 RES     
    3910 C0         -52.7367   -24.2813    23.2990 C0            1 RES     
    3911 C0         -51.9910   -25.6676    23.1479 C0            1 RES     
    3912 C0         -50.9176   -25.8235    22.0754 C0            1 RES     
    3913 C0         -50.1341   -27.1480    22.1104 C0            1 RES     
    3914 C0         -50.9640   -28.3555    21.6272 C0            1 RES     
    3915 C0         -50.0755   -29.5276    21.1727 C0            1 RES     
    3916 C0         -49.2846   -30.1720    22.2980 C0            1 RES     
    3917 C0         -53.3731   -23.7568    21.9321 C0            1 RES     
    3918 C0         -52.2758   -23.1609    20.9703 C0            1 RES     
    3919 C0         -52.5922   -22.4226    19.6405 C0            1 RES     
    3920 C0         -52.7506   -23.2558    18.3265 C0            1 RES     
    3921 C0         -52.2134   -22.4061    17.1330 C0            1 RES     
    3922 C0         -52.2487   -23.0474    15.7288 C0            1 RES     
    3923 C0         -51.4435   -22.1617    14.7449 C0            1 RES     
    3924 C0         -51.4614   -22.6733    13.3053 C0            1 RES     
    3925 H4         -55.7532   -23.0972    23.1421 H4            1 RES     
    3926 H5         -56.5044   -21.3566    22.1214 H5            1 RES     
    3927 H4         -53.3733   -24.6162    27.7896 H4            1 RES     
    3928 H6         -54.5214   -26.9252    24.1677 H6            1 RES     
    3929 H6         -53.0856   -26.3375    25.1411 H6            1 RES     
    3930 H6         -54.8703   -28.4255    26.0730 H6            1 RES     
    3931 H6         -52.3012   -28.1737    27.5086 H6            1 RES     
    3932 H6         -53.0708   -26.6573    27.6074 H6            1 RES     
    3933 H6         -55.2421   -27.8739    28.3679 H6            1 RES     
    3934 H6         -54.2606   -29.3939    28.3431 H6            1 RES     
    3935 H6         -52.7326   -28.3106    30.1183 H6            1 RES     
    3936 H6         -53.8478   -26.8875    30.1014 H6            1 RES     
    3937 H6         -54.5524   -29.8163    30.8109 H6            1 RES     
    3938 H6         -55.7699   -28.4879    30.6754 H6            1 RES     
    3939 H6         -53.4227   -28.5078    32.6797 H6            1 RES     
    3940 H6         -54.6912   -27.2314    32.5029 H6            1 RES     
    3941 H6         -56.4666   -28.9381    33.0405 H6            1 RES     
    3942 H6         -55.1794   -30.1902    33.2522 H6            1 RES     
    3943 H6         -55.2562   -28.7738    34.3665 H6            1 RES     
    3944 H6         -53.4995   -28.9208    24.1456 H6            1 RES     
    3945 H6         -52.0316   -28.1671    24.8225 H6            1 RES     
    3946 H6         -53.1315   -30.9042    25.7392 H6            1 RES     
    3947 H6         -51.9928   -30.5176    24.4299 H6            1 RES     
    3948 H6         -50.4352   -29.3671    26.0861 H6            1 RES     
    3949 H6         -51.3506   -30.2015    27.4008 H6            1 RES     
    3950 H6         -50.7879   -32.4390    26.1568 H6            1 RES     
    3951 H6         -49.9409   -31.4424    24.9413 H6            1 RES     
    3952 H6         -48.4336   -30.5435    26.8042 H6            1 RES     
    3953 H6         -49.0966   -31.8518    27.8439 H6            1 RES     
    3954 H6         -46.9063   -32.4288    26.7987 H6            1 RES     
    3955 H6         -47.5394   -32.0610    25.1592 H6            1 RES     
    3956 H6         -49.0805   -34.0127    25.2809 H6            1 RES     
    3957 H6         -48.4951   -34.3862    26.9526 H6            1 RES     
    3958 H6         -46.1764   -34.7336    26.0603 H6            1 RES     
    3959 H6         -46.7491   -34.3387    24.3930 H6            1 RES     
    3960 H6         -47.3612   -35.8099    25.2335 H6            1 RES     
    3961 H6         -53.9253   -23.0974    24.7689 H6            1 RES     
    3962 H6         -52.7904   -24.2335    25.4793 H6            1 RES     
    3963 H6         -51.9367   -23.5370    23.5031 H6            1 RES     
    3964 H6         -52.7277   -26.4713    22.9595 H6            1 RES     
    3965 H6         -51.4245   -25.8285    24.0901 H6            1 RES     
    3966 H6         -51.3829   -25.7995    21.0743 H6            1 RES     
    3967 H6         -50.1863   -24.9986    22.2180 H6            1 RES     
    3968 H6         -49.3078   -27.0074    21.3817 H6            1 RES     
    3969 H6         -49.6798   -27.3329    23.1093 H6            1 RES     
    3970 H6         -51.5285   -28.0536    20.7197 H6            1 RES     
    3971 H6         -51.7003   -28.6719    22.3957 H6            1 RES     
    3972 H6         -49.3710   -29.1689    20.3911 H6            1 RES     
    3973 H6         -50.7208   -30.3096    20.7171 H6            1 RES     
    3974 H6         -48.6607   -30.9958    21.8893 H6            1 RES     
    3975 H6         -50.0031   -30.5953    23.0143 H6            1 RES     
    3976 H6         -48.6188   -29.4436    22.8046 H6            1 RES     
    3977 H6         -54.0215   -24.5275    21.4605 H6            1 RES     
    3978 H6         -53.9764   -22.8608    22.1505 H6            1 RES     
    3979 H6         -51.7796   -22.3891    21.5973 H6            1 RES     
    3980 H6         -51.4825   -23.8457    20.6900 H6            1 RES     
    3981 H6         -51.6396   -21.8658    19.4919 H6            1 RES     
    3982 H6         -53.3782   -21.6460    19.7418 H6            1 RES     
    3983 H6         -53.8065   -23.5746    18.1870 H6            1 RES     
    3984 H6         -52.1112   -24.1645    18.3686 H6            1 RES     
    3985 H6         -51.1413   -22.2009    17.3536 H6            1 RES     
    3986 H6         -52.7517   -21.4349    17.0871 H6            1 RES     
    3987 H6         -53.3027   -23.1440    15.3899 H6            1 RES     
    3988 H6         -51.7818   -24.0560    15.7507 H6            1 RES     
    3989 H6         -50.3821   -22.1229    15.0794 H6            1 RES     
    3990 H6         -51.8465   -21.1258    14.7469 H6            1 RES     
    3991 H6         -52.4957   -22.6637    12.9031 H6            1 RES     
    3992 H6         -51.0450   -23.7002    13.2431 H6            1 RES     
    3993 H6         -50.8356   -22.0050    12.6716 H6            1 RES     
    3994 C0         -51.2725   -20.7126    36.2080 C0            1 RES     
    3995 C1         -52.3998   -20.0030    36.5155 C1            1 RES     
    3996 C1         -53.4935   -20.7753    36.6709 C1            1 RES     
    3997 C1         -53.2350   -22.0225    36.4300 C1            1 RES     
    3998 C1         -51.8216   -22.1880    36.0480 C1            1 RES     
    3999 C1         -52.1272   -22.6744    34.6393 C1            1 RES     
    4000 C1         -53.3950   -23.1168    34.3948 C1            1 RES     
    4001 S2         -54.4316   -23.1951    35.8948 S2            1 RES     
    4002 C1         -53.9150   -23.4518    33.0029 C1            1 RES     
    4003 C1         -53.0236   -23.6532    31.9081 C1            1 RES     
    4004 N3         -53.4814   -23.9295    30.6526 N3            1 RES     
    4005 C1         -54.7974   -24.0104    30.3543 C1            1 RES     
    4006 C1         -55.7279   -23.8043    31.3652 C1            1 RES     
    4007 C1         -55.2901   -23.5316    32.6970 C1            1 RES     
    4008 N3         -56.2959   -23.3363    33.5957 N3            1 RES     
    4009 S2         -57.6574   -23.5246    32.6710 S2            1 RES     
    4010 N3         -57.0672   -23.8404    31.1611 N3            1 RES     
    4011 S2         -54.9015   -19.9059    36.9216 S2            1 RES     
    4012 C1         -54.0841   -18.4249    36.8465 C1            1 RES     
    4013 C1         -52.7269   -18.6380    36.5762 C1            1 RES     
    4014 C0         -50.2392   -20.4820    37.4136 C0            1 RES     
    4015 C0         -50.1020   -19.8798    38.9013 C0            1 RES     
    4016 C0         -50.6197   -18.4214    39.1078 C0            1 RES     
    4017 C0         -51.7095   -18.3652    40.1951 C0            1 RES     
    4018 C0         -52.4011   -16.9962    40.3253 C0            1 RES     
    4019 C0         -53.3837   -17.0295    41.5114 C0            1 RES     
    4020 C0         -54.2643   -15.7764    41.5957 C0            1 RES     
    4021 C0         -55.1914   -15.8517    42.8110 C0            1 RES     
    4022 C0         -48.5442   -19.9608    39.2259 C0            1 RES     
    4023 C0         -47.8287   -19.4989    40.5341 C0            1 RES     
    4024 C0         -47.4671   -17.9874    40.6639 C0            1 RES     
    4025 C0         -46.2022   -17.7758    41.5517 C0            1 RES     
    4026 C0         -45.7377   -16.3065    41.6284 C0            1 RES     
    4027 C0         -44.2568   -16.1305    42.0540 C0            1 RES     
    4028 C0         -43.8836   -16.7223    43.4210 C0            1 RES     
    4029 C0         -42.4094   -16.4453    43.7461 C0            1 RES     
    4030 C0         -50.4612   -20.1098    34.9625 C0            1 RES     
    4031 C0         -48.9663   -20.5394    34.4456 C0            1 RES     
    4032 C0         -47.8413   -20.3056    35.5322 C0            1 RES     
    4033 C0         -46.3765   -20.3474    35.1092 C0            1 RES     
    4034 C0         -45.3619   -19.9472    36.1956 C0            1 RES     
    4035 C0         -45.2004   -21.0159    37.2965 C0            1 RES     
    4036 C0         -43.8687   -20.8727    38.0555 C0            1 RES     
    4037 C0         -43.7683   -19.6057    38.8872 C0            1 RES     
    4038 C0         -48.7665   -21.8866    33.6128 C0            1 RES     
    4039 C0         -47.6300   -21.7389    32.5309 C0            1 RES     
    4040 C0         -47.3081   -22.8119    31.4545 C0            1 RES     
    4041 C0         -46.3062   -23.9615    31.8016 C0            1 RES     
    4042 C0         -45.5125   -24.3338    30.5106 C0            1 RES     
    4043 C0         -44.4400   -25.4385    30.6272 C0            1 RES     
    4044 C0         -43.6009   -25.4719    29.3250 C0            1 RES     
    4045 C0         -42.5423   -26.5736    29.3068 C0            1 RES     
    4046 H4         -51.4146   -22.5865    33.8616 H4            1 RES     
    4047 H5         -51.9557   -23.6141    32.0486 H5            1 RES     
    4048 H4         -52.0402   -17.8233    36.4094 H4            1 RES     
    4049 H6         -49.7710   -21.4849    37.5096 H6            1 RES     
    4050 H6         -49.5810   -19.7263    37.0348 H6            1 RES     
    4051 H6         -50.6294   -20.5572    39.6084 H6            1 RES     
    4052 H6         -49.8070   -17.7286    39.3907 H6            1 RES     
    4053 H6         -50.9645   -17.9998    38.1708 H6            1 RES     
    4054 H6         -52.4993   -19.1107    39.9550 H6            1 RES     
    4055 H6         -51.2378   -18.6408    41.1642 H6            1 RES     
    4056 H6         -51.6576   -16.1853    40.4901 H6            1 RES     
    4057 H6         -52.9513   -16.7894    39.3808 H6            1 RES     
    4058 H6         -52.7986   -17.1380    42.4521 H6            1 RES     
    4059 H6         -54.0561   -17.9090    41.4084 H6            1 RES     
    4060 H6         -53.6373   -14.8628    41.6767 H6            1 RES     
    4061 H6         -54.8859   -15.7050    40.6762 H6            1 RES     
    4062 H6         -55.8268   -16.7625    42.7620 H6            1 RES     
    4063 H6         -54.5953   -15.8795    43.7486 H6            1 RES     
    4064 H6         -55.8543   -14.9615    42.8397 H6            1 RES     
    4065 H6         -48.3075   -21.0449    39.1502 H6            1 RES     
    4066 H6         -47.9746   -19.4544    38.4150 H6            1 RES     
    4067 H6         -48.2957   -19.9044    41.4541 H6            1 RES     
    4068 H6         -46.8401   -20.0017    40.4384 H6            1 RES     
    4069 H6         -47.1911   -17.6021    39.6563 H6            1 RES     
    4070 H6         -48.3290   -17.4029    41.0448 H6            1 RES     
    4071 H6         -46.3482   -18.1804    42.5754 H6            1 RES     
    4072 H6         -45.3787   -18.3360    41.0840 H6            1 RES     
    4073 H6         -45.7987   -15.8555    40.6137 H6            1 RES     
    4074 H6         -46.4169   -15.7371    42.2978 H6            1 RES     
    4075 H6         -44.0330   -15.0407    42.0646 H6            1 RES     
    4076 H6         -43.6060   -16.5995    41.2822 H6            1 RES     
    4077 H6         -44.0379   -17.8219    43.4078 H6            1 RES     
    4078 H6         -44.5158   -16.2739    44.2152 H6            1 RES     
    4079 H6         -42.2204   -15.3512    43.7990 H6            1 RES     
    4080 H6         -41.7443   -16.8846    42.9711 H6            1 RES     
    4081 H6         -42.1447   -16.8932    44.7275 H6            1 RES     
    4082 H6         -51.1344   -20.1654    34.0790 H6            1 RES     
    4083 H6         -50.3578   -19.0179    35.1578 H6            1 RES     
    4084 H6         -48.8068   -19.7481    33.6813 H6            1 RES     
    4085 H6         -47.9443   -21.0494    36.3448 H6            1 RES     
    4086 H6         -47.9637   -19.2635    35.8976 H6            1 RES     
    4087 H6         -46.0968   -21.3787    34.8309 H6            1 RES     
    4088 H6         -46.2570   -19.6372    34.2625 H6            1 RES     
    4089 H6         -44.3898   -19.8777    35.6631 H6            1 RES     
    4090 H6         -45.5886   -18.9453    36.6234 H6            1 RES     
    4091 H6         -45.1499   -22.0143    36.8127 H6            1 RES     
    4092 H6         -46.0694   -21.0169    37.9878 H6            1 RES     
    4093 H6         -43.0296   -20.8977    37.3266 H6            1 RES     
    4094 H6         -43.7521   -21.7409    38.7396 H6            1 RES     
    4095 H6         -42.7780   -19.5691    39.3902 H6            1 RES     
    4096 H6         -44.5533   -19.6451    39.6557 H6            1 RES     
    4097 H6         -43.8821   -18.6938    38.2661 H6            1 RES     
    4098 H6         -48.6464   -22.7669    34.2817 H6            1 RES     
    4099 H6         -49.6523   -22.0356    32.9744 H6            1 RES     
    4100 H6         -47.9521   -20.8529    31.9425 H6            1 RES     
    4101 H6         -46.6513   -21.4763    32.9183 H6            1 RES     
    4102 H6         -46.7567   -22.1899    30.7138 H6            1 RES     
    4103 H6         -48.2059   -23.1854    30.9199 H6            1 RES     
    4104 H6         -46.8409   -24.8302    32.2435 H6            1 RES     
    4105 H6         -45.5501   -23.6037    32.5341 H6            1 RES     
    4106 H6         -44.9742   -23.4104    30.1980 H6            1 RES     
    4107 H6         -46.2186   -24.6166    29.7004 H6            1 RES     
    4108 H6         -44.9331   -26.4201    30.7960 H6            1 RES     
    4109 H6         -43.7552   -25.2268    31.4769 H6            1 RES     
    4110 H6         -43.0785   -24.4957    29.2067 H6            1 RES     
    4111 H6         -44.2656   -25.6191    28.4465 H6            1 RES     
    4112 H6         -43.0220   -27.5732    29.3524 H6            1 RES     
    4113 H6         -41.8345   -26.4589    30.1540 H6            1 RES     
    4114 H6         -41.9630   -26.5088    28.3581 H6            1 RES     
    4115 C0         -57.1719    -9.8881    35.3053 C0            1 RES     
    4116 C1         -58.4097   -10.3589    34.9664 C1            1 RES     
    4117 C1         -58.9844   -11.1005    35.9341 C1            1 RES     
    4118 C1         -58.1962   -11.2498    36.9523 C1            1 RES     
    4119 C1         -56.9134   -10.5662    36.7114 C1            1 RES     
    4120 C1         -56.0841   -11.8414    36.7340 C1            1 RES     
    4121 C1         -56.6571   -12.9467    37.2934 C1            1 RES     
    4122 S2         -58.2720   -12.6044    38.0714 S2            1 RES     
    4123 C1         -56.0437   -14.3391    37.2220 C1            1 RES     
    4124 C1         -54.6755   -14.5282    36.8672 C1            1 RES     
    4125 N3         -54.1239   -15.7731    36.7770 N3            1 RES     
    4126 C1         -54.8308   -16.9048    36.9939 C1            1 RES     
    4127 C1         -56.1767   -16.8019    37.3229 C1            1 RES     
    4128 C1         -56.7876   -15.5169    37.4462 C1            1 RES     
    4129 N3         -58.1134   -15.5471    37.7608 N3            1 RES     
    4130 S2         -58.4286   -17.1698    37.8707 S2            1 RES     
    4131 N3         -56.9742   -17.8769    37.5351 N3            1 RES     
    4132 S2         -60.4426   -11.7857    35.4807 S2            1 RES     
    4133 C1         -60.3715   -11.0889    33.9391 C1            1 RES     
    4134 C1         -59.1788   -10.3705    33.7907 C1            1 RES     
    4135 C0         -57.2738    -8.2868    35.3136 C0            1 RES     
    4136 C0         -58.3119    -7.0572    35.2427 C0            1 RES     
    4137 C0         -59.3380    -7.0850    34.0663 C0            1 RES     
    4138 C0         -60.7867    -7.0565    34.5892 C0            1 RES     
    4139 C0         -61.8546    -7.2699    33.5013 C0            1 RES     
    4140 C0         -63.2561    -7.1082    34.1205 C0            1 RES     
    4141 C0         -64.3851    -7.4995    33.1588 C0            1 RES     
    4142 C0         -65.7501    -7.2839    33.8164 C0            1 RES     
    4143 C0         -57.3924    -5.7600    35.1390 C0            1 RES     
    4144 C0         -57.8646    -4.2763    35.0285 C0            1 RES     
    4145 C0         -58.2489    -3.7447    33.6136 C0            1 RES     
    4146 C0         -57.9873    -2.2122    33.4875 C0            1 RES     
    4147 C0         -58.2515    -1.6526    32.0742 C0            1 RES     
    4148 C0         -57.5424    -0.3044    31.7827 C0            1 RES     
    4149 C0         -57.9013     0.8527    32.7263 C0            1 RES     
    4150 C0         -57.1726     2.1373    32.3086 C0            1 RES     
    4151 C0         -56.0637   -10.1390    34.1730 C0            1 RES     
    4152 C0         -54.5439    -9.5283    34.1141 C0            1 RES     
    4153 C0         -54.5100    -7.9481    34.0617 C0            1 RES     
    4154 C0         -53.2117    -7.2426    33.6832 C0            1 RES     
    4155 C0         -53.3162    -5.7180    33.4981 C0            1 RES     
    4156 C0         -53.4841    -4.9564    34.8292 C0            1 RES     
    4157 C0         -53.0716    -3.4780    34.7097 C0            1 RES     
    4158 C0         -53.9784    -2.6576    33.8088 C0            1 RES     
    4159 C0         -53.3970   -10.1521    35.0328 C0            1 RES     
    4160 C0         -51.9941   -10.1189    34.3152 C0            1 RES     
    4161 C0         -50.7137   -10.7976    34.8753 C0            1 RES     
    4162 C0         -49.8024   -10.0024    35.8668 C0            1 RES     
    4163 C0         -48.3192   -10.4201    35.6204 C0            1 RES     
    4164 C0         -47.2339    -9.7347    36.4785 C0            1 RES     
    4165 C0         -45.8370   -10.0864    35.9077 C0            1 RES     
    4166 C0         -44.6799    -9.5062    36.7195 C0            1 RES     
    4167 H4         -55.1419   -11.8919    36.2545 H4            1 RES     
    4168 H5         -54.0297   -13.6856    36.6809 H5            1 RES     
    4169 H4         -58.8971    -9.9129    32.8557 H4            1 RES     
    4170 H6         -56.6357    -8.0207    36.1832 H6            1 RES     
    4171 H6         -56.8603    -8.0072    34.3656 H6            1 RES     
    4172 H6         -58.8641    -7.0029    36.2066 H6            1 RES     
    4173 H6         -59.1990    -6.2353    33.3741 H6            1 RES     
    4174 H6         -59.1601    -7.9376    33.4213 H6            1 RES     
    4175 H6         -60.9166    -7.8665    35.3403 H6            1 RES     
    4176 H6         -60.9495    -6.0751    35.0871 H6            1 RES     
    4177 H6         -61.7352    -6.5374    32.6728 H6            1 RES     
    4178 H6         -61.7365    -8.2967    33.0897 H6            1 RES     
    4179 H6         -63.3838    -6.0478    34.4338 H6            1 RES     
    4180 H6         -63.3385    -7.7563    35.0202 H6            1 RES     
    4181 H6         -64.3335    -6.8942    32.2286 H6            1 RES     
    4182 H6         -64.2822    -8.5747    32.8938 H6            1 RES     
    4183 H6         -65.8282    -7.8719    34.7565 H6            1 RES     
    4184 H6         -65.8981    -6.2080    34.0521 H6            1 RES     
    4185 H6         -66.5592    -7.6098    33.1295 H6            1 RES     
    4186 H6         -56.7809    -5.7863    36.0676 H6            1 RES     
    4187 H6         -56.6841    -5.8806    34.2892 H6            1 RES     
    4188 H6         -58.6054    -3.9946    35.8036 H6            1 RES     
    4189 H6         -56.9298    -3.7245    35.2752 H6            1 RES     
    4190 H6         -57.5804    -4.2232    32.8625 H6            1 RES     
    4191 H6         -59.3002    -3.9956    33.3657 H6            1 RES     
    4192 H6         -58.5675    -1.6347    34.2378 H6            1 RES     
    4193 H6         -56.9185    -2.0466    33.6905 H6            1 RES     
    4194 H6         -57.8384    -2.3608    31.3229 H6            1 RES     
    4195 H6         -59.3464    -1.5737    31.9051 H6            1 RES     
    4196 H6         -57.7943    -0.0057    30.7410 H6            1 RES     
    4197 H6         -56.4416    -0.4633    31.8296 H6            1 RES     
    4198 H6         -57.5956     0.5989    33.7633 H6            1 RES     
    4199 H6         -58.9953     1.0377    32.7027 H6            1 RES     
    4200 H6         -57.4764     2.4426    31.2839 H6            1 RES     
    4201 H6         -56.0708     1.9898    32.3244 H6            1 RES     
    4202 H6         -57.4240     2.9629    33.0080 H6            1 RES     
    4203 H6         -55.9721   -11.2402    34.0469 H6            1 RES     
    4204 H6         -56.5139    -9.7917    33.2150 H6            1 RES     
    4205 H6         -54.2557    -9.8632    33.0940 H6            1 RES     
    4206 H6         -54.8058    -7.5338    35.0440 H6            1 RES     
    4207 H6         -55.2038    -7.6418    33.2497 H6            1 RES     
    4208 H6         -52.4654    -7.3768    34.4860 H6            1 RES     
    4209 H6         -52.8710    -7.6740    32.7171 H6            1 RES     
    4210 H6         -52.3362    -5.4169    33.0712 H6            1 RES     
    4211 H6         -54.1063    -5.4444    32.7638 H6            1 RES     
    4212 H6         -52.7841    -5.3912    35.5738 H6            1 RES     
    4213 H6         -54.5147    -5.0645    35.2282 H6            1 RES     
    4214 H6         -52.0293    -3.4205    34.3274 H6            1 RES     
    4215 H6         -53.0893    -3.0191    35.7219 H6            1 RES     
    4216 H6         -53.6083    -1.6108    33.7633 H6            1 RES     
    4217 H6         -54.9836    -2.6576    34.2539 H6            1 RES     
    4218 H6         -54.0135    -3.0643    32.7775 H6            1 RES     
    4219 H6         -53.3984    -9.7032    36.0502 H6            1 RES     
    4220 H6         -53.5698   -11.2373    35.1160 H6            1 RES     
    4221 H6         -52.1853   -10.6495    33.3576 H6            1 RES     
    4222 H6         -51.6445    -9.1341    34.0242 H6            1 RES     
    4223 H6         -50.1038   -10.8662    33.9465 H6            1 RES     
    4224 H6         -50.8757   -11.8453    35.2031 H6            1 RES     
    4225 H6         -50.1267   -10.1659    36.9175 H6            1 RES     
    4226 H6         -49.8551    -8.9136    35.6475 H6            1 RES     
    4227 H6         -48.0920   -10.1551    34.5628 H6            1 RES     
    4228 H6         -48.2117   -11.5202    35.7347 H6            1 RES     
    4229 H6         -47.3200   -10.0781    37.5320 H6            1 RES     
    4230 H6         -47.3543    -8.6299    36.4472 H6            1 RES     
    4231 H6         -45.7594    -9.6875    34.8710 H6            1 RES     
    4232 H6         -45.7088   -11.1897    35.8660 H6            1 RES     
    4233 H6         -44.6745    -9.9304    37.7449 H6            1 RES     
    4234 H6         -44.7469    -8.3997    36.7724 H6            1 RES     
    4235 H6         -43.7175    -9.7735    36.2274 H6            1 RES     
    4236 C0         -64.7324   -13.2496    26.1223 C0            1 RES     
    4237 C1         -65.2160   -14.4050    26.6699 C1            1 RES     
    4238 C1         -65.9373   -14.2059    27.7910 C1            1 RES     
    4239 C1         -65.9556   -12.9549    28.1306 C1            1 RES     
    4240 C1         -65.1636   -12.1547    27.1802 C1            1 RES     
    4241 C1         -64.1278   -11.7255    28.2084 C1            1 RES     
    4242 C1         -64.4634   -11.8615    29.5244 C1            1 RES     
    4243 S2         -66.1950   -12.3801    29.7754 S2            1 RES     
    4244 C1         -63.4776   -11.6631    30.6684 C1            1 RES     
    4245 C1         -62.2343   -10.9944    30.4670 C1            1 RES     
    4246 N3         -61.3345   -10.8336    31.4803 N3            1 RES     
    4247 C1         -61.5441   -11.3093    32.7282 C1            1 RES     
    4248 C1         -62.7242   -11.9918    32.9960 C1            1 RES     
    4249 C1         -63.7006   -12.1650    31.9682 C1            1 RES     
    4250 N3         -64.8087   -12.8605    32.3500 N3            1 RES     
    4251 S2         -64.4979   -13.2034    33.9407 S2            1 RES     
    4252 N3         -63.0152   -12.5263    34.2069 N3            1 RES     
    4253 S2         -66.4257   -15.6218    28.5378 S2            1 RES     
    4254 C1         -65.6880   -16.5832    27.3551 C1            1 RES     
    4255 C1         -65.0285   -15.7750    26.4211 C1            1 RES     
    4256 C0         -65.3991   -13.1134    24.6693 C0            1 RES     
    4257 C0         -66.5345   -13.7269    23.7053 C0            1 RES     
    4258 C0         -66.5202   -15.2769    23.5189 C0            1 RES     
    4259 C0         -67.8635   -15.9018    23.9407 C0            1 RES     
    4260 C0         -67.8642   -17.4409    23.9633 C0            1 RES     
    4261 C0         -69.2827   -17.9478    24.2867 C0            1 RES     
    4262 C0         -69.3379   -19.4616    24.5276 C0            1 RES     
    4263 C0         -70.7743   -19.9093    24.8077 C0            1 RES     
    4264 C0         -66.3067   -13.0030    22.3043 C0            1 RES     
    4265 C0         -67.1161   -13.2220    20.9876 C0            1 RES     
    4266 C0         -66.7133   -14.4284    20.0850 C0            1 RES     
    4267 C0         -67.0183   -14.1454    18.5818 C0            1 RES     
    4268 C0         -66.5430   -15.2642    17.6317 C0            1 RES     
    4269 C0         -66.3659   -14.8130    16.1584 C0            1 RES     
    4270 C0         -67.6218   -14.2440    15.4823 C0            1 RES     
    4271 C0         -67.3303   -13.8770    14.0208 C0            1 RES     
    4272 C0         -63.1714   -13.3219    25.7600 C0            1 RES     
    4273 C0         -62.2984   -12.2374    24.8950 C0            1 RES     
    4274 C0         -62.8253   -12.0533    23.4154 C0            1 RES     
    4275 C0         -61.9463   -11.3375    22.3948 C0            1 RES     
    4276 C0         -62.4680   -11.3505    20.9467 C0            1 RES     
    4277 C0         -63.6821   -10.4231    20.7320 C0            1 RES     
    4278 C0         -63.8657   -10.0380    19.2528 C0            1 RES     
    4279 C0         -64.2497   -11.2031    18.3573 C0            1 RES     
    4280 C0         -61.8301   -10.8691    25.5710 C0            1 RES     
    4281 C0         -60.4222   -10.4068    25.0342 C0            1 RES     
    4282 C0         -59.6206    -9.2085    25.6131 C0            1 RES     
    4283 C0         -59.8847    -7.7733    25.0508 C0            1 RES     
    4284 C0         -58.5432    -6.9766    25.0757 C0            1 RES     
    4285 C0         -58.5635    -5.5299    24.5364 C0            1 RES     
    4286 C0         -57.1078    -5.0155    24.4056 C0            1 RES     
    4287 C0         -57.0108    -3.5653    23.9341 C0            1 RES     
    4288 H4         -63.1567   -11.4225    27.9158 H4            1 RES     
    4289 H5         -61.9796   -10.5753    29.5072 H5            1 RES     
    4290 H4         -64.4273   -16.1889    25.6272 H4            1 RES     
    4291 H6         -65.5844   -12.0200    24.6033 H6            1 RES     
    4292 H6         -64.6322   -13.4678    24.0104 H6            1 RES     
    4293 H6         -67.5312   -13.4152    24.0878 H6            1 RES     
    4294 H6         -66.3120   -15.5674    22.4735 H6            1 RES     
    4295 H6         -65.6861   -15.7202    24.0503 H6            1 RES     
    4296 H6         -68.1160   -15.5581    24.9680 H6            1 RES     
    4297 H6         -68.6443   -15.5367    23.2374 H6            1 RES     
    4298 H6         -67.5430   -17.8566    22.9828 H6            1 RES     
    4299 H6         -67.1508   -17.7810    24.7462 H6            1 RES     
    4300 H6         -69.9550   -17.6801    23.4409 H6            1 RES     
    4301 H6         -69.6528   -17.4453    25.2069 H6            1 RES     
    4302 H6         -68.9548   -20.0125    23.6421 H6            1 RES     
    4303 H6         -68.7071   -19.7140    25.4081 H6            1 RES     
    4304 H6         -71.1884   -19.3674    25.6855 H6            1 RES     
    4305 H6         -71.4190   -19.7088    23.9249 H6            1 RES     
    4306 H6         -70.7985   -20.9982    25.0231 H6            1 RES     
    4307 H6         -66.4389   -11.9226    22.5327 H6            1 RES     
    4308 H6         -65.2464   -13.1340    21.9928 H6            1 RES     
    4309 H6         -68.2127   -13.1464    21.1311 H6            1 RES     
    4310 H6         -66.8175   -12.3314    20.3902 H6            1 RES     
    4311 H6         -65.6094   -14.5614    20.1445 H6            1 RES     
    4312 H6         -67.2035   -15.3626    20.4265 H6            1 RES     
    4313 H6         -68.0966   -13.9396    18.4145 H6            1 RES     
    4314 H6         -66.4570   -13.2418    18.3002 H6            1 RES     
    4315 H6         -65.5326   -15.6026    17.9500 H6            1 RES     
    4316 H6         -67.2335   -16.1310    17.7045 H6            1 RES     
    4317 H6         -66.0136   -15.6914    15.5735 H6            1 RES     
    4318 H6         -65.5669   -14.0391    16.1163 H6            1 RES     
    4319 H6         -67.9502   -13.3261    16.0143 H6            1 RES     
    4320 H6         -68.4400   -14.9933    15.5070 H6            1 RES     
    4321 H6         -67.0270   -14.7784    13.4453 H6            1 RES     
    4322 H6         -66.5156   -13.1232    13.9574 H6            1 RES     
    4323 H6         -68.2390   -13.4492    13.5465 H6            1 RES     
    4324 H6         -62.6241   -13.4864    26.7140 H6            1 RES     
    4325 H6         -63.0268   -14.2715    25.1958 H6            1 RES     
    4326 H6         -61.3483   -12.8066    24.8008 H6            1 RES     
    4327 H6         -63.7870   -11.5061    23.4250 H6            1 RES     
    4328 H6         -62.9254   -13.0724    22.9842 H6            1 RES     
    4329 H6         -61.8673   -10.2671    22.6546 H6            1 RES     
    4330 H6         -60.9569   -11.8442    22.3982 H6            1 RES     
    4331 H6         -61.6325   -10.9397    20.3411 H6            1 RES     
    4332 H6         -62.6709   -12.3849    20.5901 H6            1 RES     
    4333 H6         -63.4891    -9.4638    21.2573 H6            1 RES     
    4334 H6         -64.6070   -10.8644    21.1596 H6            1 RES     
    4335 H6         -62.9242    -9.5830    18.8754 H6            1 RES     
    4336 H6         -64.6678    -9.2719    19.1799 H6            1 RES     
    4337 H6         -64.3491   -10.8487    17.3087 H6            1 RES     
    4338 H6         -65.2249   -11.5805    18.6963 H6            1 RES     
    4339 H6         -63.4921   -12.0128    18.3853 H6            1 RES     
    4340 H6         -62.6203   -10.0893    25.5060 H6            1 RES     
    4341 H6         -61.6017   -11.0652    26.6311 H6            1 RES     
    4342 H6         -59.7732   -11.2873    25.2306 H6            1 RES     
    4343 H6         -60.3627   -10.2491    23.9626 H6            1 RES     
    4344 H6         -58.5997    -9.4573    25.2451 H6            1 RES     
    4345 H6         -59.5483    -9.2183    26.7204 H6            1 RES     
    4346 H6         -60.6951    -7.2696    25.6213 H6            1 RES     
    4347 H6         -60.1886    -7.8294    23.9827 H6            1 RES     
    4348 H6         -57.8339    -7.5395    24.4274 H6            1 RES     
    4349 H6         -58.1325    -6.9588    26.1081 H6            1 RES     
    4350 H6         -59.1429    -4.8822    25.2293 H6            1 RES     
    4351 H6         -59.0358    -5.4969    23.5306 H6            1 RES     
    4352 H6         -56.5652    -5.6501    23.6689 H6            1 RES     
    4353 H6         -56.5858    -5.0948    25.3836 H6            1 RES     
    4354 H6         -57.4791    -2.8845    24.6747 H6            1 RES     
    4355 H6         -57.4981    -3.4353    22.9454 H6            1 RES     
    4356 H6         -55.9381    -3.2844    23.8330 H6            1 RES     
    4357 C0         -63.1471   -25.4329    27.4796 C0            1 RES     
    4358 C1         -63.3947   -25.5218    28.8211 C1            1 RES     
    4359 C1         -64.6593   -25.1968    29.1554 C1            1 RES     
    4360 C1         -65.3415   -24.8108    28.1229 C1            1 RES     
    4361 C1         -64.5006   -24.8402    26.9135 C1            1 RES     
    4362 C1         -64.5653   -23.3387    26.6777 C1            1 RES     
    4363 C1         -65.5563   -22.6505    27.3157 C1            1 RES     
    4364 S2         -66.7290   -23.7329    28.2010 S2            1 RES     
    4365 C1         -65.6419   -21.1300    27.3415 C1            1 RES     
    4366 C1         -64.8962   -20.3307    26.4256 C1            1 RES     
    4367 N3         -64.9479   -18.9674    26.4572 N3            1 RES     
    4368 C1         -65.6839   -18.2832    27.3614 C1            1 RES     
    4369 C1         -66.4210   -18.9932    28.3009 C1            1 RES     
    4370 C1         -66.4094   -20.4213    28.2900 C1            1 RES     
    4371 N3         -67.1613   -21.0020    29.2672 N3            1 RES     
    4372 S2         -67.7927   -19.6975    30.0698 S2            1 RES     
    4373 N3         -67.1695   -18.3989    29.2618 N3            1 RES     
    4374 S2         -64.9362   -25.1798    30.8060 S2            1 RES     
    4375 C1         -63.3413   -25.6329    31.1496 C1            1 RES     
    4376 C1         -62.6059   -25.7411    29.9629 C1            1 RES     
    4377 C0         -62.7726   -26.9111    26.9808 C0            1 RES     
    4378 C0         -62.7488   -28.4588    27.4267 C0            1 RES     
    4379 C0         -62.0530   -28.7759    28.7879 C0            1 RES     
    4380 C0         -63.0199   -29.4818    29.7574 C0            1 RES     
    4381 C0         -62.4667   -29.6590    31.1829 C0            1 RES     
    4382 C0         -63.4692   -30.4721    32.0240 C0            1 RES     
    4383 C0         -63.0972   -30.5284    33.5109 C0            1 RES     
    4384 C0         -64.1076   -31.3773    34.2860 C0            1 RES     
    4385 C0         -61.9978   -29.2084    26.2381 C0            1 RES     
    4386 C0         -61.6755   -30.7326    26.1395 C0            1 RES     
    4387 C0         -60.3960   -31.2483    26.8669 C0            1 RES     
    4388 C0         -59.7921   -32.4939    26.1483 C0            1 RES     
    4389 C0         -58.4650   -32.9824    26.7653 C0            1 RES     
    4390 C0         -57.6046   -33.8527    25.8125 C0            1 RES     
    4391 C0         -58.2776   -35.1304    25.2903 C0            1 RES     
    4392 C0         -57.3133   -35.9237    24.3979 C0            1 RES     
    4393 C0         -61.8076   -24.6216    27.1322 C0            1 RES     
    4394 C0         -61.0672   -24.4987    25.6751 C0            1 RES     
    4395 C0         -60.5963   -25.8933    25.0970 C0            1 RES     
    4396 C0         -59.6205   -25.9230    23.9251 C0            1 RES     
    4397 C0         -59.0926   -27.3163    23.5383 C0            1 RES     
    4398 C0         -60.1514   -28.1917    22.8362 C0            1 RES     
    4399 C0         -59.5150   -29.3236    22.0093 C0            1 RES     
    4400 C0         -58.8047   -30.3726    22.8472 C0            1 RES     
    4401 C0         -61.6589   -23.5223    24.5593 C0            1 RES     
    4402 C0         -60.5165   -22.8741    23.6882 C0            1 RES     
    4403 C0         -60.7530   -21.7579    22.6338 C0            1 RES     
    4404 C0         -61.1222   -22.1610    21.1685 C0            1 RES     
    4405 C0         -60.4938   -21.1167    20.1939 C0            1 RES     
    4406 C0         -60.7109   -21.3334    18.6806 C0            1 RES     
    4407 C0         -59.8031   -20.3566    17.8916 C0            1 RES     
    4408 C0         -59.9810   -20.4435    16.3766 C0            1 RES     
    4409 H4         -63.8191   -22.8383    26.1180 H4            1 RES     
    4410 H5         -64.2844   -20.7857    25.6638 H5            1 RES     
    4411 H4         -61.5466   -25.9430    29.9608 H4            1 RES     
    4412 H6         -63.2648   -26.9491    25.9855 H6            1 RES     
    4413 H6         -61.7021   -26.8949    26.9392 H6            1 RES     
    4414 H6         -63.7948   -28.8358    27.4557 H6            1 RES     
    4415 H6         -61.1597   -29.4129    28.6590 H6            1 RES     
    4416 H6         -61.6325   -27.8768    29.2231 H6            1 RES     
    4417 H6         -63.9528   -28.8816    29.8394 H6            1 RES     
    4418 H6         -63.2691   -30.4762    29.3254 H6            1 RES     
    4419 H6         -61.4879   -30.1875    31.1704 H6            1 RES     
    4420 H6         -62.3226   -28.6513    31.6316 H6            1 RES     
    4421 H6         -63.5193   -31.5053    31.6128 H6            1 RES     
    4422 H6         -64.4772   -30.0096    31.9448 H6            1 RES     
    4423 H6         -62.0836   -30.9634    33.6441 H6            1 RES     
    4424 H6         -63.1031   -29.4972    33.9276 H6            1 RES     
    4425 H6         -65.1348   -30.9703    34.1643 H6            1 RES     
    4426 H6         -64.0909   -32.4262    33.9189 H6            1 RES     
    4427 H6         -63.8550   -31.3771    35.3671 H6            1 RES     
    4428 H6         -62.6286   -29.0017    25.3458 H6            1 RES     
    4429 H6         -61.0177   -28.7142    26.0552 H6            1 RES     
    4430 H6         -62.5577   -31.3785    26.3227 H6            1 RES     
    4431 H6         -61.4291   -30.8401    25.0593 H6            1 RES     
    4432 H6         -59.6120   -30.4600    26.8047 H6            1 RES     
    4433 H6         -60.6034   -31.4607    27.9353 H6            1 RES     
    4434 H6         -60.5189   -33.3322    26.1018 H6            1 RES     
    4435 H6         -59.5604   -32.1935    25.1154 H6            1 RES     
    4436 H6         -57.8293   -32.1002    26.9983 H6            1 RES     
    4437 H6         -58.6725   -33.5161    27.7169 H6            1 RES     
    4438 H6         -56.6759   -34.1358    26.3560 H6            1 RES     
    4439 H6         -57.3057   -33.2337    24.9369 H6            1 RES     
    4440 H6         -59.1716   -34.8634    24.6880 H6            1 RES     
    4441 H6         -58.5881   -35.7719    26.1410 H6            1 RES     
    4442 H6         -56.4163   -36.2371    24.9748 H6            1 RES     
    4443 H6         -56.9831   -35.3116    23.5305 H6            1 RES     
    4444 H6         -57.8153   -36.8357    24.0104 H6            1 RES     
    4445 H6         -61.9493   -23.5848    27.5087 H6            1 RES     
    4446 H6         -61.0106   -25.0425    27.7869 H6            1 RES     
    4447 H6         -60.1356   -23.9808    25.9907 H6            1 RES     
    4448 H6         -61.4760   -26.4821    24.7749 H6            1 RES     
    4449 H6         -60.0262   -26.3971    25.9066 H6            1 RES     
    4450 H6         -60.1192   -25.5494    23.0135 H6            1 RES     
    4451 H6         -58.7444   -25.3007    24.2092 H6            1 RES     
    4452 H6         -58.2890   -27.1189    22.7975 H6            1 RES     
    4453 H6         -58.6343   -27.8401    24.4066 H6            1 RES     
    4454 H6         -60.6922   -27.5640    22.0966 H6            1 RES     
    4455 H6         -60.8970   -28.5813    23.5608 H6            1 RES     
    4456 H6         -58.7935   -28.8850    21.2861 H6            1 RES     
    4457 H6         -60.3132   -29.8336    21.4277 H6            1 RES     
    4458 H6         -58.3622   -31.1435    22.1803 H6            1 RES     
    4459 H6         -59.5549   -30.8521    23.4920 H6            1 RES     
    4460 H6         -57.9940   -29.9307    23.4618 H6            1 RES     
    4461 H6         -62.4588   -24.0167    23.9656 H6            1 RES     
    4462 H6         -62.0768   -22.6342    25.0603 H6            1 RES     
    4463 H6         -59.8587   -22.3962    24.4458 H6            1 RES     
    4464 H6         -59.8761   -23.5763    23.1651 H6            1 RES     
    4465 H6         -59.7224   -21.3459    22.5472 H6            1 RES     
    4466 H6         -61.3777   -20.9207    23.0083 H6            1 RES     
    4467 H6         -62.2239   -22.2513    21.0503 H6            1 RES     
    4468 H6         -60.6591   -23.1385    20.9110 H6            1 RES     
    4469 H6         -59.3932   -21.1589    20.3587 H6            1 RES     
    4470 H6         -60.8462   -20.0955    20.4546 H6            1 RES     
    4471 H6         -61.7793   -21.1590    18.4289 H6            1 RES     
    4472 H6         -60.4366   -22.3718    18.3937 H6            1 RES     
    4473 H6         -58.7384   -20.5859    18.1232 H6            1 RES     
    4474 H6         -60.0087   -19.3094    18.2025 H6            1 RES     
    4475 H6         -61.0134   -20.1543    16.0901 H6            1 RES     
    4476 H6         -59.7635   -21.4679    16.0089 H6            1 RES     
    4477 H6         -59.2731   -19.7393    15.8840 H6            1 RES     
    4478 C0         -58.3789   -24.8980    38.8711 C0            1 RES     
    4479 C1         -59.3414   -24.1249    39.4582 C1            1 RES     
    4480 C1         -60.5498   -24.7197    39.5082 C1            1 RES     
    4481 C1         -60.5360   -25.8778    38.9261 C1            1 RES     
    4482 C1         -59.1962   -26.1619    38.3829 C1            1 RES     
    4483 C1         -59.6505   -26.1863    36.9313 C1            1 RES     
    4484 C1         -60.9879   -26.3303    36.6999 C1            1 RES     
    4485 S2         -61.9509   -26.6456    38.2177 S2            1 RES     
    4486 C1         -61.6242   -26.1806    35.3241 C1            1 RES     
    4487 C1         -60.8364   -26.2175    34.1360 C1            1 RES     
    4488 N3         -61.3946   -26.0598    32.9008 N3            1 RES     
    4489 C1         -62.7154   -25.8386    32.7168 C1            1 RES     
    4490 C1         -63.5446   -25.7677    33.8292 C1            1 RES     
    4491 C1         -63.0032   -25.9465    35.1387 C1            1 RES     
    4492 N3         -63.9135   -25.8427    36.1477 N3            1 RES     
    4493 S2         -65.3277   -25.5440    35.3382 S2            1 RES     
    4494 N3         -64.8758   -25.5260    33.7498 N3            1 RES     
    4495 S2         -61.7613   -23.7335    40.1090 S2            1 RES     
    4496 C1         -60.6903   -22.4438    40.3477 C1            1 RES     
    4497 C1         -59.4092   -22.7944    39.9046 C1            1 RES     
    4498 C0         -57.2662   -25.1798    39.9924 C0            1 RES     
    4499 C0         -56.9524   -25.0397    41.5660 C0            1 RES     
    4500 C0         -57.1836   -23.6295    42.1948 C0            1 RES     
    4501 C0         -58.1931   -23.6955    43.3564 C0            1 RES     
    4502 C0         -58.6150   -22.3204    43.9048 C0            1 RES     
    4503 C0         -59.5313   -22.5159    45.1278 C0            1 RES     
    4504 C0         -60.1621   -21.2072    45.6196 C0            1 RES     
    4505 C0         -61.0301   -21.4596    46.8545 C0            1 RES     
    4506 C0         -55.4226   -25.4614    41.7101 C0            1 RES     
    4507 C0         -54.5749   -25.5000    43.0203 C0            1 RES     
    4508 C0         -53.9364   -24.1627    43.5066 C0            1 RES     
    4509 C0         -52.6147   -24.4133    44.2957 C0            1 RES     
    4510 C0         -51.8854   -23.1185    44.7103 C0            1 RES     
    4511 C0         -50.3792   -23.3116    45.0259 C0            1 RES     
    4512 C0         -50.0583   -24.3085    46.1490 C0            1 RES     
    4513 C0         -48.5449   -24.3773    46.3951 C0            1 RES     
    4514 C0         -57.5291   -24.1184    37.7562 C0            1 RES     
    4515 C0         -56.1639   -24.6292    37.0066 C0            1 RES     
    4516 C0         -54.9662   -24.8904    38.0058 C0            1 RES     
    4517 C0         -53.5549   -25.0545    37.4508 C0            1 RES     
    4518 C0         -52.4352   -25.1399    38.5036 C0            1 RES     
    4519 C0         -52.4219   -26.4810    39.2662 C0            1 RES     
    4520 C0         -51.0530   -26.7721    39.9074 C0            1 RES     
    4521 C0         -50.6835   -25.8162    41.0285 C0            1 RES     
    4522 C0         -56.2533   -25.7102    35.8353 C0            1 RES     
    4523 C0         -55.1602   -25.4601    34.7279 C0            1 RES     
    4524 C0         -55.0907   -26.2345    33.3829 C0            1 RES     
    4525 C0         -54.3018   -27.5834    33.3211 C0            1 RES     
    4526 C0         -53.6504   -27.7125    31.9090 C0            1 RES     
    4527 C0         -52.7946   -28.9673    31.6309 C0            1 RES     
    4528 C0         -52.0369   -28.7796    30.2925 C0            1 RES     
    4529 C0         -51.2004   -29.9923    29.8871 C0            1 RES     
    4530 H4         -58.9706   -26.0067    36.1402 H4            1 RES     
    4531 H5         -59.7741   -26.3944    34.1806 H5            1 RES     
    4532 H4         -58.5932   -22.0895    39.8930 H4            1 RES     
    4533 H6         -56.9861   -26.2333    39.7780 H6            1 RES     
    4534 H6         -56.4987   -24.4679    39.7643 H6            1 RES     
    4535 H6         -57.5620   -25.7889    42.1176 H6            1 RES     
    4536 H6         -56.2454   -23.1841    42.5714 H6            1 RES     
    4537 H6         -57.4880   -22.9164    41.4375 H6            1 RES     
    4538 H6         -59.1166   -24.2063    43.0050 H6            1 RES     
    4539 H6         -57.7358   -24.2999    44.1707 H6            1 RES     
    4540 H6         -57.7286   -21.7194    44.2054 H6            1 RES     
    4541 H6         -59.1610   -21.7751    43.1035 H6            1 RES     
    4542 H6         -58.9333   -22.9729    45.9480 H6            1 RES     
    4543 H6         -60.3577   -23.2107    44.8620 H6            1 RES     
    4544 H6         -59.3750   -20.4667    45.8775 H6            1 RES     
    4545 H6         -60.8018   -20.7853    44.8135 H6            1 RES     
    4546 H6         -61.8235   -22.2048    46.6288 H6            1 RES     
    4547 H6         -60.4067   -21.8409    47.6917 H6            1 RES     
    4548 H6         -61.5164   -20.5151    47.1774 H6            1 RES     
    4549 H6         -55.3926   -26.5066    41.3314 H6            1 RES     
    4550 H6         -54.8078   -24.8526    41.0102 H6            1 RES     
    4551 H6         -55.0655   -26.0598    43.8418 H6            1 RES     
    4552 H6         -53.7009   -26.1124    42.7038 H6            1 RES     
    4553 H6         -53.6412   -23.5666    42.6136 H6            1 RES     
    4554 H6         -54.6579   -23.5718    44.1065 H6            1 RES     
    4555 H6         -52.7850   -25.0536    45.1869 H6            1 RES     
    4556 H6         -51.9304   -24.9512    43.6224 H6            1 RES     
    4557 H6         -51.9093   -22.4029    43.8594 H6            1 RES     
    4558 H6         -52.4169   -22.6510    45.5662 H6            1 RES     
    4559 H6         -49.9590   -22.3186    45.3002 H6            1 RES     
    4560 H6         -49.8619   -23.6512    44.1006 H6            1 RES     
    4561 H6         -50.4122   -25.3215    45.8630 H6            1 RES     
    4562 H6         -50.5601   -23.9977    47.0887 H6            1 RES     
    4563 H6         -48.1561   -23.3861    46.7145 H6            1 RES     
    4564 H6         -48.0082   -24.6902    45.4731 H6            1 RES     
    4565 H6         -48.3219   -25.1144    47.1956 H6            1 RES     
    4566 H6         -58.2411   -23.8183    36.9564 H6            1 RES     
    4567 H6         -57.2182   -23.1544    38.2199 H6            1 RES     
    4568 H6         -55.8973   -23.6961    36.4646 H6            1 RES     
    4569 H6         -55.1663   -25.8011    38.6013 H6            1 RES     
    4570 H6         -54.8782   -23.9831    38.6411 H6            1 RES     
    4571 H6         -53.4824   -26.0014    36.8872 H6            1 RES     
    4572 H6         -53.3464   -24.1691    36.8121 H6            1 RES     
    4573 H6         -51.4924   -25.0876    37.9189 H6            1 RES     
    4574 H6         -52.4541   -24.2706    39.1981 H6            1 RES     
    4575 H6         -52.5779   -27.3026    38.5354 H6            1 RES     
    4576 H6         -53.2435   -26.5289    40.0116 H6            1 RES     
    4577 H6         -50.2672   -26.7337    39.1219 H6            1 RES     
    4578 H6         -51.0662   -27.8016    40.3264 H6            1 RES     
    4579 H6         -49.6812   -26.0820    41.4281 H6            1 RES     
    4580 H6         -51.4261   -25.9353    41.8303 H6            1 RES     
    4581 H6         -50.6566   -24.7631    40.6813 H6            1 RES     
    4582 H6         -56.2661   -26.7475    36.2361 H6            1 RES     
    4583 H6         -57.1800   -25.5308    35.2665 H6            1 RES     
    4584 H6         -55.3411   -24.4063    34.4249 H6            1 RES     
    4585 H6         -54.1331   -25.4782    35.0767 H6            1 RES     
    4586 H6         -54.4693   -25.5325    32.7823 H6            1 RES     
    4587 H6         -56.0655   -26.2944    32.8560 H6            1 RES     
    4588 H6         -54.9659   -28.4399    33.5686 H6            1 RES     
    4589 H6         -53.4600   -27.5694    34.0473 H6            1 RES     
    4590 H6         -52.9668   -26.8402    31.7998 H6            1 RES     
    4591 H6         -54.4330   -27.6423    31.1231 H6            1 RES     
    4592 H6         -53.4512   -29.8627    31.5826 H6            1 RES     
    4593 H6         -52.0442   -29.1122    32.4382 H6            1 RES     
    4594 H6         -51.3502   -27.9079    30.3852 H6            1 RES     
    4595 H6         -52.7572   -28.5690    29.4727 H6            1 RES     
    4596 H6         -51.8528   -30.8732    29.7144 H6            1 RES     
    4597 H6         -50.4453   -30.2322    30.6643 H6            1 RES     
    4598 H6         -50.6635   -29.7658    28.9383 H6            1 RES     
    4599 C0         -62.2268   -13.4251    41.3920 C0            1 RES     
    4600 C1         -63.5443   -13.5750    41.0596 C1            1 RES     
    4601 C1         -64.2001   -14.4488    41.8491 C1            1 RES     
    4602 C1         -63.4065   -14.9989    42.7140 C1            1 RES     
    4603 C1         -62.0326   -14.4957    42.5408 C1            1 RES     
    4604 C1         -61.4512   -15.8464    42.1508 C1            1 RES     
    4605 C1         -62.1909   -16.9531    42.4526 C1            1 RES     
    4606 S2         -63.6779   -16.5770    43.4415 S2            1 RES     
    4607 C1         -61.8474   -18.3535    41.9620 C1            1 RES     
    4608 C1         -60.5550   -18.6601    41.4430 C1            1 RES     
    4609 N3         -60.2460   -19.9055    40.9786 N3            1 RES     
    4610 C1         -61.1378   -20.9212    40.9573 C1            1 RES     
    4611 C1         -62.4253   -20.6929    41.4268 C1            1 RES     
    4612 C1         -62.7837   -19.4089    41.9391 C1            1 RES     
    4613 N3         -64.0765   -19.3061    42.3580 N3            1 RES     
    4614 S2         -64.6788   -20.8221    42.0685 S2            1 RES     
    4615 N3         -63.3959   -21.6388    41.4243 N3            1 RES     
    4616 S2         -65.7786   -14.7342    41.3714 S2            1 RES     
    4617 C1         -65.6520   -13.6628    40.0663 C1            1 RES     
    4618 C1         -64.3559   -13.1373    39.9996 C1            1 RES     
    4619 C0         -62.0326   -11.8934    41.8286 C0            1 RES     
    4620 C0         -62.8295   -10.5384    42.1799 C0            1 RES     
    4621 C0         -63.8965   -10.0736    41.1392 C0            1 RES     
    4622 C0         -65.2897    -9.9521    41.7852 C0            1 RES     
    4623 C0         -66.4277    -9.6807    40.7848 C0            1 RES     
    4624 C0         -67.7455    -9.4672    41.5537 C0            1 RES     
    4625 C0         -68.9703    -9.3887    40.6337 C0            1 RES     
    4626 C0         -70.2408    -9.1406    41.4502 C0            1 RES     
    4627 C0         -61.6934    -9.4319    42.3334 C0            1 RES     
    4628 C0         -61.8899    -7.9181    42.6600 C0            1 RES     
    4629 C0         -62.2349    -6.9632    41.4761 C0            1 RES     
    4630 C0         -61.7026    -5.5196    41.7315 C0            1 RES     
    4631 C0         -61.9246    -4.5583    40.5453 C0            1 RES     
    4632 C0         -60.9943    -3.3173    40.5515 C0            1 RES     
    4633 C0         -61.0909    -2.4208    41.7945 C0            1 RES     
    4634 C0         -60.1589    -1.2087    41.6609 C0            1 RES     
    4635 C0         -61.2370   -13.5343    40.1344 C0            1 RES     
    4636 C0         -59.6352   -13.1891    40.0947 C0            1 RES     
    4637 C0         -59.3144   -11.6829    40.4548 C0            1 RES     
    4638 C0         -57.9275   -11.1239    40.1538 C0            1 RES     
    4639 C0         -57.7589    -9.6113    40.3848 C0            1 RES     
    4640 C0         -57.7225    -9.2271    41.8786 C0            1 RES     
    4641 C0         -57.0517    -7.8613    42.1119 C0            1 RES     
    4642 C0         -57.8331    -6.6880    41.5465 C0            1 RES     
    4643 C0         -58.5811   -14.2204    40.7060 C0            1 RES     
    4644 C0         -57.2306   -14.2225    39.8935 C0            1 RES     
    4645 C0         -56.0721   -15.2294    40.1335 C0            1 RES     
    4646 C0         -54.9856   -14.8975    41.2082 C0            1 RES     
    4647 C0         -53.6172   -15.4693    40.7227 C0            1 RES     
    4648 C0         -52.3861   -15.2334    41.6243 C0            1 RES     
    4649 C0         -51.1053   -15.6395    40.8525 C0            1 RES     
    4650 C0         -49.8251   -15.5024    41.6753 C0            1 RES     
    4651 H4         -60.5574   -15.9175    41.5883 H4            1 RES     
    4652 H5         -59.7748   -17.9166    41.4238 H5            1 RES     
    4653 H4         -64.0385   -12.4935    39.1947 H4            1 RES     
    4654 H6         -61.3170   -11.9845    42.6735 H6            1 RES     
    4655 H6         -61.6190   -11.4364    40.9523 H6            1 RES     
    4656 H6         -63.3174   -10.6606    43.1720 H6            1 RES     
    4657 H6         -63.6360    -9.1015    40.6836 H6            1 RES     
    4658 H6         -63.9080   -10.7338    40.2798 H6            1 RES     
    4659 H6         -65.5312   -10.9043    42.3069 H6            1 RES     
    4660 H6         -65.2464    -9.1320    42.5356 H6            1 RES     
    4661 H6         -66.2142    -8.7789    40.1694 H6            1 RES     
    4662 H6         -66.5191   -10.5601    40.1096 H6            1 RES     
    4663 H6         -67.6619    -8.5273    42.1442 H6            1 RES     
    4664 H6         -67.9039   -10.3145    42.2561 H6            1 RES     
    4665 H6         -68.8515    -8.5685    39.8938 H6            1 RES     
    4666 H6         -69.0789   -10.3518    40.0881 H6            1 RES     
    4667 H6         -70.3821    -9.9428    42.2067 H6            1 RES     
    4668 H6         -70.1778    -8.1615    41.9721 H6            1 RES     
    4669 H6         -71.1268    -9.1282    40.7812 H6            1 RES     
    4670 H6         -61.0549    -9.8118    43.1610 H6            1 RES     
    4671 H6         -61.0593    -9.4293    41.4189 H6            1 RES     
    4672 H6         -62.5299    -7.7421    43.5479 H6            1 RES     
    4673 H6         -60.8593    -7.6165    42.9534 H6            1 RES     
    4674 H6         -61.7011    -7.3205    40.5666 H6            1 RES     
    4675 H6         -63.3248    -6.9603    41.2712 H6            1 RES     
    4676 H6         -62.1318    -5.0828    42.6579 H6            1 RES     
    4677 H6         -60.6134    -5.5938    41.8693 H6            1 RES     
    4678 H6         -61.6836    -5.0911    39.5994 H6            1 RES     
    4679 H6         -62.9930    -4.2574    40.5065 H6            1 RES     
    4680 H6         -61.2350    -2.7073    39.6527 H6            1 RES     
    4681 H6         -59.9405    -3.6615    40.4514 H6            1 RES     
    4682 H6         -60.7894    -2.9959    42.6953 H6            1 RES     
    4683 H6         -62.1322    -2.0593    41.9230 H6            1 RES     
    4684 H6         -60.4485    -0.5885    40.7851 H6            1 RES     
    4685 H6         -59.1033    -1.5337    41.5338 H6            1 RES     
    4686 H6         -60.2219    -0.5770    42.5724 H6            1 RES     
    4687 H6         -61.3549   -14.5581    39.7165 H6            1 RES     
    4688 H6         -61.6594   -12.8685    39.3474 H6            1 RES     
    4689 H6         -59.4607   -13.2739    39.0002 H6            1 RES     
    4690 H6         -59.4834   -11.5112    41.5346 H6            1 RES     
    4691 H6         -59.9769   -11.0561    39.8202 H6            1 RES     
    4692 H6         -57.1823   -11.5937    40.8195 H6            1 RES     
    4693 H6         -57.7168   -11.3236    39.0809 H6            1 RES     
    4694 H6         -56.7610    -9.3699    39.9614 H6            1 RES     
    4695 H6         -58.5184    -9.0209    39.8254 H6            1 RES     
    4696 H6         -57.0807    -9.9583    42.4141 H6            1 RES     
    4697 H6         -58.7359    -9.2698    42.3304 H6            1 RES     
    4698 H6         -56.0353    -7.8732    41.6616 H6            1 RES     
    4699 H6         -56.9381    -7.7012    43.2059 H6            1 RES     
    4700 H6         -57.2797    -5.7444    41.7419 H6            1 RES     
    4701 H6         -58.7996    -6.6450    42.0687 H6            1 RES     
    4702 H6         -57.9898    -6.7847    40.4527 H6            1 RES     
    4703 H6         -58.4532   -14.0738    41.8009 H6            1 RES     
    4704 H6         -58.9461   -15.2432    40.5182 H6            1 RES     
    4705 H6         -57.5599   -14.4312    38.8528 H6            1 RES     
    4706 H6         -56.7200   -13.2670    39.8388 H6            1 RES     
    4707 H6         -55.5286   -15.1399    39.1659 H6            1 RES     
    4708 H6         -56.4082   -16.2855    40.1894 H6            1 RES     
    4709 H6         -55.2855   -15.2874    42.2052 H6            1 RES     
    4710 H6         -54.8476   -13.7971    41.2875 H6            1 RES     
    4711 H6         -53.3942   -14.9655    39.7549 H6            1 RES     
    4712 H6         -53.7082   -16.5607    40.5345 H6            1 RES     
    4713 H6         -52.4851   -15.8335    42.5544 H6            1 RES     
    4714 H6         -52.3030   -14.1583    41.8947 H6            1 RES     
    4715 H6         -51.0037   -14.9900    39.9538 H6            1 RES     
    4716 H6         -51.1838   -16.6945    40.5117 H6            1 RES     
    4717 H6         -49.8504   -16.1864    42.5488 H6            1 RES     
    4718 H6         -49.6855   -14.4574    42.0221 H6            1 RES     
    4719 H6         -48.9519   -15.7787    41.0422 H6            1 RES     
    4720 C0         -70.6913   -12.8503    32.4026 C0            1 RES     
    4721 C1         -71.3530   -14.0159    32.6717 C1            1 RES     
    4722 C1         -71.9730   -14.0162    33.8684 C1            1 RES     
    4723 C1         -71.7457   -12.9211    34.5238 C1            1 RES     
    4724 C1         -70.8650   -12.0322    33.7458 C1            1 RES     
    4725 C1         -69.7217   -12.0776    34.7483 C1            1 RES     
    4726 C1         -70.0155   -12.5123    36.0084 C1            1 RES     
    4727 S2         -71.7994   -12.7882    36.2767 S2            1 RES     
    4728 C1         -68.9583   -12.7999    37.0665 C1            1 RES     
    4729 C1         -67.6240   -12.3152    36.9311 C1            1 RES     
    4730 N3         -66.6643   -12.5885    37.8619 N3            1 RES     
    4731 C1         -66.8998   -13.3470    38.9558 C1            1 RES     
    4732 C1         -68.1714   -13.8734    39.1454 C1            1 RES     
    4733 C1         -69.2094   -13.5953    38.2046 C1            1 RES     
    4734 N3         -70.4075   -14.1771    38.4936 N3            1 RES     
    4735 S2         -70.0919   -14.9893    39.9026 S2            1 RES     
    4736 N3         -68.4994   -14.6642    40.1960 N3            1 RES     
    4737 S2         -72.6780   -15.4825    34.2611 S2            1 RES     
    4738 C1         -72.1846   -16.1902    32.8041 C1            1 RES     
    4739 C1         -71.4317   -15.2765    32.0564 C1            1 RES     
    4740 C0         -71.3881   -12.2133    31.1052 C0            1 RES     
    4741 C0         -72.6600   -12.3438    30.1255 C0            1 RES     
    4742 C0         -72.9390   -13.7637    29.5394 C0            1 RES     
    4743 C0         -74.3533   -14.2509    29.9074 C0            1 RES     
    4744 C0         -74.6354   -15.7154    29.5263 C0            1 RES     
    4745 C0         -76.1063   -16.0515    29.8377 C0            1 RES     
    4746 C0         -76.4272   -17.5428    29.6781 C0            1 RES     
    4747 C0         -77.9070   -17.8079    29.9651 C0            1 RES     
    4748 C0         -72.3682   -11.3110    28.9478 C0            1 RES     
    4749 C0         -73.2638   -11.0245    27.7018 C0            1 RES     
    4750 C0         -73.1314   -11.9862    26.4812 C0            1 RES     
    4751 C0         -73.4483   -11.2557    25.1401 C0            1 RES     
    4752 C0         -73.2307   -12.1333    23.8899 C0            1 RES     
    4753 C0         -73.0421   -11.3308    22.5762 C0            1 RES     
    4754 C0         -74.2021   -10.4000    22.1938 C0            1 RES     
    4755 C0         -73.9158    -9.6993    20.8586 C0            1 RES     
    4756 C0         -69.1885   -13.0758    31.8888 C0            1 RES     
    4757 C0         -68.1722   -11.9543    31.2597 C0            1 RES     
    4758 C0         -68.7241   -11.2875    29.9361 C0            1 RES     
    4759 C0         -67.7767   -10.4738    29.0605 C0            1 RES     
    4760 C0         -68.3582   -10.0032    27.7152 C0            1 RES     
    4761 C0         -69.3901    -8.8662    27.8659 C0            1 RES     
    4762 C0         -69.5679    -8.0655    26.5631 C0            1 RES     
    4763 C0         -70.2001    -8.8609    25.4341 C0            1 RES     
    4764 C0         -67.4301   -10.9201    32.2230 C0            1 RES     
    4765 C0         -65.9876   -10.5660    31.6960 C0            1 RES     
    4766 C0         -64.9538    -9.7210    32.4903 C0            1 RES     
    4767 C0         -64.9757    -8.1635    32.3506 C0            1 RES     
    4768 C0         -63.5111    -7.6357    32.4569 C0            1 RES     
    4769 C0         -63.2904    -6.1136    32.3195 C0            1 RES     
    4770 C0         -61.7726    -5.8294    32.1915 C0            1 RES     
    4771 C0         -61.4330    -4.3419    32.1090 C0            1 RES     
    4772 H4         -68.7261   -11.8697    34.4553 H4            1 RES     
    4773 H5         -67.3413   -11.6967    36.0949 H5            1 RES     
    4774 H4         -70.9540   -15.5497    31.1290 H4            1 RES     
    4775 H6         -71.3724   -11.1287    31.3454 H6            1 RES     
    4776 H6         -70.7305   -12.4943    30.3075 H6            1 RES     
    4777 H6         -73.5639   -11.9897    30.6682 H6            1 RES     
    4778 H6         -72.8361   -13.7864    28.4397 H6            1 RES     
    4779 H6         -72.1768   -14.4664    29.8554 H6            1 RES     
    4780 H6         -74.4908   -14.1655    31.0078 H6            1 RES     
    4781 H6         -75.0855   -13.5839    29.4009 H6            1 RES     
    4782 H6         -74.4415   -15.8931    28.4455 H6            1 RES     
    4783 H6         -73.9611   -16.3695    30.1222 H6            1 RES     
    4784 H6         -76.7564   -15.4554    29.1586 H6            1 RES     
    4785 H6         -76.3351   -15.7669    30.8879 H6            1 RES     
    4786 H6         -76.1931   -17.8848    28.6473 H6            1 RES     
    4787 H6         -75.8135   -18.1270    30.3985 H6            1 RES     
    4788 H6         -78.1736   -17.4673    30.9891 H6            1 RES     
    4789 H6         -78.5439   -17.2700    29.2302 H6            1 RES     
    4790 H6         -78.1206   -18.8948    29.8892 H6            1 RES     
    4791 H6         -72.2892   -10.3283    29.4624 H6            1 RES     
    4792 H6         -71.3654   -11.5238    28.5146 H6            1 RES     
    4793 H6         -74.3202   -10.8122    27.9626 H6            1 RES     
    4794 H6         -72.8348   -10.0658    27.3330 H6            1 RES     
    4795 H6         -72.0691   -12.3099    26.3998 H6            1 RES     
    4796 H6         -73.7684   -12.8846    26.6109 H6            1 RES     
    4797 H6         -74.4771   -10.8378    25.1346 H6            1 RES     
    4798 H6         -72.7443   -10.4145    25.0533 H6            1 RES     
    4799 H6         -72.2861   -12.7072    24.0121 H6            1 RES     
    4800 H6         -74.0645   -12.8613    23.7980 H6            1 RES     
    4801 H6         -72.8843   -12.0606    21.7514 H6            1 RES     
    4802 H6         -72.1174   -10.7172    22.6631 H6            1 RES     
    4803 H6         -74.3315    -9.6223    22.9759 H6            1 RES     
    4804 H6         -75.1418   -10.9825    22.0984 H6            1 RES     
    4805 H6         -73.8101   -10.4454    20.0414 H6            1 RES     
    4806 H6         -72.9804    -9.1014    20.9184 H6            1 RES     
    4807 H6         -74.7516    -9.0147    20.6004 H6            1 RES     
    4808 H6         -68.6373   -13.5832    32.7107 H6            1 RES     
    4809 H6         -69.2469   -13.8446    31.0847 H6            1 RES     
    4810 H6         -67.3481   -12.6238    30.9308 H6            1 RES     
    4811 H6         -69.5675   -10.6138    30.1790 H6            1 RES     
    4812 H6         -69.0293   -12.1185    29.2646 H6            1 RES     
    4813 H6         -67.4907    -9.5437    29.5827 H6            1 RES     
    4814 H6         -66.8980   -11.1172    28.8381 H6            1 RES     
    4815 H6         -67.4903    -9.5851    27.1625 H6            1 RES     
    4816 H6         -68.7637   -10.8522    27.1210 H6            1 RES     
    4817 H6         -69.0002    -8.1331    28.6034 H6            1 RES     
    4818 H6         -70.3595    -9.2498    28.2481 H6            1 RES     
    4819 H6         -68.5773    -7.6855    26.2311 H6            1 RES     
    4820 H6         -70.2182    -7.1879    26.7690 H6            1 RES     
    4821 H6         -70.2811    -8.2211    24.5290 H6            1 RES     
    4822 H6         -71.2114    -9.1513    25.7527 H6            1 RES     
    4823 H6         -69.6035    -9.7601    25.1779 H6            1 RES     
    4824 H6         -68.0659   -10.0336    32.4391 H6            1 RES     
    4825 H6         -67.1928   -11.4341    33.1685 H6            1 RES     
    4826 H6         -65.5027   -11.5607    31.5932 H6            1 RES     
    4827 H6         -65.9496   -10.1325    30.7023 H6            1 RES     
    4828 H6         -64.0140   -10.0234    31.9757 H6            1 RES     
    4829 H6         -64.8335   -10.0457    33.5445 H6            1 RES     
    4830 H6         -65.6526    -7.7096    33.1067 H6            1 RES     
    4831 H6         -65.3337    -7.8738    31.3386 H6            1 RES     
    4832 H6         -62.9478    -8.1077    31.6202 H6            1 RES     
    4833 H6         -63.0568    -7.9694    33.4146 H6            1 RES     
    4834 H6         -63.7084    -5.5948    33.2090 H6            1 RES     
    4835 H6         -63.7945    -5.7290    31.4064 H6            1 RES     
    4836 H6         -61.3903    -6.3178    31.2667 H6            1 RES     
    4837 H6         -61.2295    -6.2585    33.0611 H6            1 RES     
    4838 H6         -61.7337    -3.8231    33.0427 H6            1 RES     
    4839 H6         -61.9332    -3.8676    31.2392 H6            1 RES     
    4840 H6         -60.3328    -4.2242    31.9846 H6            1 RES     
    4841 C0         -71.3080   -25.0269    30.3686 C0            1 RES     
    4842 C1         -71.5055   -25.4385    31.6572 C1            1 RES     
    4843 C1         -72.6722   -25.0145    32.1823 C1            1 RES     
    4844 C1         -73.3189   -24.2536    31.3557 C1            1 RES     
    4845 C1         -72.5544   -24.0879    30.1072 C1            1 RES     
    4846 C1         -72.3532   -22.5899    30.2797 C1            1 RES     
    4847 C1         -73.1706   -21.9500    31.1660 C1            1 RES     
    4848 S2         -74.4799   -23.0258    31.8433 S2            1 RES     
    4849 C1         -72.9744   -20.5023    31.5967 C1            1 RES     
    4850 C1         -72.1378   -19.6162    30.8560 C1            1 RES     
    4851 N3         -71.9368   -18.3246    31.2480 N3            1 RES     
    4852 C1         -72.4922   -17.8034    32.3649 C1            1 RES     
    4853 C1         -73.3030   -18.6128    33.1508 C1            1 RES     
    4854 C1         -73.5542   -19.9649    32.7655 C1            1 RES     
    4855 N3         -74.3540   -20.6597    33.6229 N3            1 RES     
    4856 S2         -74.6976   -19.5401    34.7946 S2            1 RES     
    4857 N3         -73.8845   -18.1903    34.2997 N3            1 RES     
    4858 S2         -72.8648   -25.4057    33.7982 S2            1 RES     
    4859 C1         -71.3660   -26.1911    33.8596 C1            1 RES     
    4860 C1         -70.7185   -26.0890    32.6223 C1            1 RES     
    4861 C0         -71.2345   -26.3523    29.4673 C0            1 RES     
    4862 C0         -71.4746   -27.9450    29.4884 C0            1 RES     
    4863 C0         -70.7868   -28.7330    30.6474 C0            1 RES     
    4864 C0         -71.8210   -29.5090    31.4848 C0            1 RES     
    4865 C0         -71.2445   -30.1587    32.7556 C0            1 RES     
    4866 C0         -72.3393   -30.9952    33.4450 C0            1 RES     
    4867 C0         -71.9158   -31.5175    34.8236 C0            1 RES     
    4868 C0         -73.0280   -32.3685    35.4409 C0            1 RES     
    4869 C0         -70.9296   -28.4526    28.0798 C0            1 RES     
    4870 C0         -70.8974   -29.9227    27.5558 C0            1 RES     
    4871 C0         -69.7021   -30.8209    27.9992 C0            1 RES     
    4872 C0         -69.3708   -31.9033    26.9262 C0            1 RES     
    4873 C0         -68.1289   -32.7533    27.2661 C0            1 RES     
    4874 C0         -67.4877   -33.4579    26.0422 C0            1 RES     
    4875 C0         -68.4071   -34.4148    25.2695 C0            1 RES     
    4876 C0         -67.6470   -35.0801    24.1140 C0            1 RES     
    4877 C0         -69.8598   -24.3829    30.1212 C0            1 RES     
    4878 C0         -69.1775   -23.9884    28.6842 C0            1 RES     
    4879 C0         -68.9977   -25.2286    27.7195 C0            1 RES     
    4880 C0         -68.0990   -25.0956    26.4943 C0            1 RES     
    4881 C0         -67.8542   -26.3964    25.7084 C0            1 RES     
    4882 C0         -69.0869   -26.8594    24.9045 C0            1 RES     
    4883 C0         -68.7079   -27.8096    23.7541 C0            1 RES     
    4884 C0         -68.1643   -29.1501    24.2176 C0            1 RES     
    4885 C0         -69.6308   -22.6601    27.9235 C0            1 RES     
    4886 C0         -68.4303   -21.9945    27.1490 C0            1 RES     
    4887 C0         -68.5063   -20.6089    26.4506 C0            1 RES     
    4888 C0         -69.0104   -20.5283    24.9723 C0            1 RES     
    4889 C0         -68.2467   -19.3747    24.2504 C0            1 RES     
    4890 C0         -68.5695   -19.1294    22.7605 C0            1 RES     
    4891 C0         -67.5352   -18.1365    22.1729 C0            1 RES     
    4892 C0         -67.7958   -17.7742    20.7116 C0            1 RES     
    4893 H4         -71.5545   -22.0848    29.8030 H4            1 RES     
    4894 H5         -71.6556   -19.9389    29.9476 H5            1 RES     
    4895 H4         -69.7155   -26.4536    32.4678 H4            1 RES     
    4896 H6         -71.7707   -26.0345    28.5476 H6            1 RES     
    4897 H6         -70.1824   -26.5014    29.3309 H6            1 RES     
    4898 H6         -72.5695   -28.1385    29.5159 H6            1 RES     
    4899 H6         -70.0324   -29.4479    30.2728 H6            1 RES     
    4900 H6         -70.1888   -28.0695    31.2612 H6            1 RES     
    4901 H6         -72.6231   -28.8096    31.8084 H6            1 RES     
    4902 H6         -72.2681   -30.2919    30.8331 H6            1 RES     
    4903 H6         -70.3810   -30.8168    32.5133 H6            1 RES     
    4904 H6         -70.8974   -29.3506    33.4368 H6            1 RES     
    4905 H6         -72.5971   -31.8532    32.7843 H6            1 RES     
    4906 H6         -73.2479   -30.3697    33.5849 H6            1 RES     
    4907 H6         -70.9942   -32.1326    34.7423 H6            1 RES     
    4908 H6         -71.7131   -30.6537    35.4943 H6            1 RES     
    4909 H6         -73.9675   -31.7808    35.5272 H6            1 RES     
    4910 H6         -73.2210   -33.2644    34.8122 H6            1 RES     
    4911 H6         -72.7300   -32.7063    36.4557 H6            1 RES     
    4912 H6         -71.5522   -27.9084    27.3361 H6            1 RES     
    4913 H6         -69.8849   -28.0951    27.9413 H6            1 RES     
    4914 H6         -71.8737   -30.4401    27.6458 H6            1 RES     
    4915 H6         -70.7250   -29.7688    26.4669 H6            1 RES     
    4916 H6         -68.7905   -30.1857    28.0721 H6            1 RES     
    4917 H6         -69.8954   -31.2812    28.9894 H6            1 RES     
    4918 H6         -70.2405   -32.5655    26.7305 H6            1 RES     
    4919 H6         -69.1359   -31.3734    25.9908 H6            1 RES     
    4920 H6         -67.3321   -32.0856    27.6610 H6            1 RES     
    4921 H6         -68.3867   -33.4859    28.0600 H6            1 RES     
    4922 H6         -66.6027   -34.0277    26.4028 H6            1 RES     
    4923 H6         -67.1211   -32.6803    25.3351 H6            1 RES     
    4924 H6         -69.2637   -33.8498    24.8450 H6            1 RES     
    4925 H6         -68.7905   -35.2050    25.9479 H6            1 RES     
    4926 H6         -66.7971   -35.6825    24.5017 H6            1 RES     
    4927 H6         -67.2505   -34.3165    23.4100 H6            1 RES     
    4928 H6         -68.3252   -35.7555    23.5503 H6            1 RES     
    4929 H6         -69.7913   -23.4805    30.7675 H6            1 RES     
    4930 H6         -69.1242   -25.0922    30.5649 H6            1 RES     
    4931 H6         -68.1531   -23.7372    29.0352 H6            1 RES     
    4932 H6         -69.9844   -25.5538    27.3388 H6            1 RES     
    4933 H6         -68.4930   -26.0217    28.3117 H6            1 RES     
    4934 H6         -68.5622   -24.4097    25.7633 H6            1 RES     
    4935 H6         -67.1114   -24.7277    26.8476 H6            1 RES     
    4936 H6         -67.0631   -26.1381    24.9729 H6            1 RES     
    4937 H6         -67.4603   -27.2061    26.3623 H6            1 RES     
    4938 H6         -69.5369   -25.9731    24.4092 H6            1 RES     
    4939 H6         -69.8571   -27.3050    25.5687 H6            1 RES     
    4940 H6         -67.9523   -27.3142    23.1064 H6            1 RES     
    4941 H6         -69.6122   -28.0023    23.1370 H6            1 RES     
    4942 H6         -67.9020   -29.7703    23.3337 H6            1 RES     
    4943 H6         -68.9592   -29.6581    24.7820 H6            1 RES     
    4944 H6         -67.2588   -29.0330    24.8474 H6            1 RES     
    4945 H6         -70.5343   -22.8344    27.2991 H6            1 RES     
    4946 H6         -69.8550   -21.8873    28.6765 H6            1 RES     
    4947 H6         -67.6617   -21.8575    27.9399 H6            1 RES     
    4948 H6         -67.9545   -22.6216    26.4025 H6            1 RES     
    4949 H6         -67.4227   -20.3640    26.3783 H6            1 RES     
    4950 H6         -68.9488   -19.8158    27.0882 H6            1 RES     
    4951 H6         -70.1142   -20.4007    24.9388 H6            1 RES     
    4952 H6         -68.7470   -21.4600    24.4256 H6            1 RES     
    4953 H6         -67.1661   -19.6406    24.2941 H6            1 RES     
    4954 H6         -68.3933   -18.4208    24.8012 H6            1 RES     
    4955 H6         -69.5981   -18.7197    22.6648 H6            1 RES     
    4956 H6         -68.5039   -20.0797    22.1873 H6            1 RES     
    4957 H6         -66.5211   -18.5921    22.2352 H6            1 RES     
    4958 H6         -67.5305   -17.1958    22.7649 H6            1 RES     
    4959 H6         -68.7696   -17.2520    20.6092 H6            1 RES     
    4960 H6         -67.7872   -18.6797    20.0699 H6            1 RES     
    4961 H6         -66.9942   -17.0880    20.3562 H6            1 RES     
    4962 C0         -66.0021   -28.4273    41.0022 C0            1 RES     
    4963 C1         -66.7782   -27.6977    41.8590 C1            1 RES     
    4964 C1         -68.0717   -28.0766    41.8650 C1            1 RES     
    4965 C1         -68.2975   -29.0166    41.0014 C1            1 RES     
    4966 C1         -67.0591   -29.3568    40.2793 C1            1 RES     
    4967 C1         -67.5767   -28.9072    38.9213 C1            1 RES     
    4968 C1         -68.9270   -28.7606    38.7871 C1            1 RES     
    4969 S2         -69.8604   -29.3175    40.2531 S2            1 RES     
    4970 C1         -69.5878   -28.1369    37.5647 C1            1 RES     
    4971 C1         -68.8758   -27.9754    36.3396 C1            1 RES     
    4972 N3         -69.4520   -27.3956    35.2469 N3            1 RES     
    4973 C1         -70.7169   -26.9186    35.2523 C1            1 RES     
    4974 C1         -71.4667   -27.0204    36.4174 C1            1 RES     
    4975 C1         -70.9075   -27.6378    37.5775 C1            1 RES     
    4976 N3         -71.7357   -27.6667    38.6595 N3            1 RES     
    4977 S2         -73.1069   -26.9294    38.0932 S2            1 RES     
    4978 N3         -72.7332   -26.5510    36.5295 N3            1 RES     
    4979 S2         -69.0526   -27.1080    42.8141 S2            1 RES     
    4980 C1         -67.7532   -26.1273    43.2802 C1            1 RES     
    4981 C1         -66.5800   -26.5483    42.6423 C1            1 RES     
    4982 C0         -64.9095   -29.1845    41.9008 C0            1 RES     
    4983 C0         -64.5030   -29.5349    43.4195 C0            1 RES     
    4984 C0         -64.4422   -28.3332    44.4143 C0            1 RES     
    4985 C0         -65.3920   -28.5485    45.6077 C0            1 RES     
    4986 C0         -65.5286   -27.3267    46.5341 C0            1 RES     
    4987 C0         -66.4077   -27.6969    47.7439 C0            1 RES     
    4988 C0         -66.7643   -26.4881    48.6181 C0            1 RES     
    4989 C0         -67.6060   -26.9234    49.8198 C0            1 RES     
    4990 C0         -63.0716   -30.2251    43.3036 C0            1 RES     
    4991 C0         -62.1858   -30.7603    44.4723 C0            1 RES     
    4992 C0         -61.2910   -29.7314    45.2293 C0            1 RES     
    4993 C0         -60.0027   -30.4023    45.7975 C0            1 RES     
    4994 C0         -59.0298   -29.4088    46.4659 C0            1 RES     
    4995 C0         -57.5718   -29.9257    46.5769 C0            1 RES     
    4996 C0         -57.3878   -31.2310    47.3646 C0            1 RES     
    4997 C0         -55.9030   -31.6122    47.4406 C0            1 RES     
    4998 C0         -65.0760   -27.5224    40.0553 C0            1 RES     
    4999 C0         -63.8638   -28.0250    39.0733 C0            1 RES     
    5000 C0         -62.6896   -28.7431    39.8519 C0            1 RES     
    5001 C0         -61.3595   -28.9782    39.1432 C0            1 RES     
    5002 C0         -60.2271   -29.5317    40.0268 C0            1 RES     
    5003 C0         -60.4250   -31.0138    40.4070 C0            1 RES     
    5004 C0         -59.1046   -31.6902    40.8181 C0            1 RES     
    5005 C0         -58.5146   -31.1526    42.1103 C0            1 RES     
    5006 C0         -64.2041   -28.7133    37.6737 C0            1 RES     
    5007 C0         -63.1358   -28.3521    36.5726 C0            1 RES     
    5008 C0         -63.2718   -28.7284    35.0713 C0            1 RES     
    5009 C0         -62.7476   -30.1192    34.5848 C0            1 RES     
    5010 C0         -62.1968   -29.9611    33.1333 C0            1 RES     
    5011 C0         -61.5996   -31.2143    32.4574 C0            1 RES     
    5012 C0         -60.8828   -30.7939    31.1496 C0            1 RES     
    5013 C0         -60.3028   -31.9691    30.3641 C0            1 RES     
    5014 H4         -66.9126   -28.6317    38.1445 H4            1 RES     
    5015 H5         -67.8631   -28.3297    36.2363 H5            1 RES     
    5016 H4         -65.6499   -26.0112    42.7389 H4            1 RES     
    5017 H6         -64.8377   -30.1700    41.3928 H6            1 RES     
    5018 H6         -64.0357   -28.5735    41.7959 H6            1 RES     
    5019 H6         -65.2136   -30.2959    43.8105 H6            1 RES     
    5020 H6         -63.4218   -28.1684    44.8043 H6            1 RES     
    5021 H6         -64.6452   -27.3998    43.9021 H6            1 RES     
    5022 H6         -66.4088   -28.7845    45.2233 H6            1 RES     
    5023 H6         -65.0163   -29.4196    46.1888 H6            1 RES     
    5024 H6         -64.5340   -26.9853    46.8968 H6            1 RES     
    5025 H6         -66.0016   -26.5006    45.9584 H6            1 RES     
    5026 H6         -65.8666   -28.4530    48.3559 H6            1 RES     
    5027 H6         -67.3590   -28.1466    47.3844 H6            1 RES     
    5028 H6         -65.8436   -25.9865    48.9856 H6            1 RES     
    5029 H6         -67.3523   -25.7622    48.0144 H6            1 RES     
    5030 H6         -68.5322   -27.4374    49.4826 H6            1 RES     
    5031 H6         -67.0252   -27.6167    50.4656 H6            1 RES     
    5032 H6         -67.8953   -26.0372    50.4229 H6            1 RES     
    5033 H6         -63.2514   -31.1166    42.6635 H6            1 RES     
    5034 H6         -62.3885   -29.5573    42.7329 H6            1 RES     
    5035 H6         -62.7323   -31.4355    45.1611 H6            1 RES     
    5036 H6         -61.4546   -31.3973    43.9258 H6            1 RES     
    5037 H6         -60.9330   -28.9701    44.4998 H6            1 RES     
    5038 H6         -61.8634   -29.2175    46.0281 H6            1 RES     
    5039 H6         -60.2463   -31.2254    46.5019 H6            1 RES     
    5040 H6         -59.4606   -30.8396    44.9456 H6            1 RES     
    5041 H6         -58.9613   -28.4935    45.8382 H6            1 RES     
    5042 H6         -59.4265   -29.1134    47.4604 H6            1 RES     
    5043 H6         -56.9643   -29.1291    47.0607 H6            1 RES     
    5044 H6         -57.1688   -30.0786    45.5506 H6            1 RES     
    5045 H6         -57.9344   -32.0543    46.8580 H6            1 RES     
    5046 H6         -57.7802   -31.1118    48.3958 H6            1 RES     
    5047 H6         -55.3246   -30.8245    47.9703 H6            1 RES     
    5048 H6         -55.4759   -31.7439    46.4226 H6            1 RES     
    5049 H6         -55.7823   -32.5668    47.9957 H6            1 RES     
    5050 H6         -65.7570   -26.9017    39.4326 H6            1 RES     
    5051 H6         -64.5724   -26.7871    40.7238 H6            1 RES     
    5052 H6         -63.4557   -27.0359    38.7717 H6            1 RES     
    5053 H6         -63.0257   -29.7366    40.2045 H6            1 RES     
    5054 H6         -62.4074   -28.0722    40.6914 H6            1 RES     
    5055 H6         -61.4881   -29.7327    38.3472 H6            1 RES     
    5056 H6         -61.0217   -27.9982    38.7418 H6            1 RES     
    5057 H6         -59.3188   -29.4766    39.3902 H6            1 RES     
    5058 H6         -60.0541   -28.8954    40.9232 H6            1 RES     
    5059 H6         -60.7627   -31.5662    39.5047 H6            1 RES     
    5060 H6         -61.2061   -31.1286    41.1878 H6            1 RES     
    5061 H6         -58.3623   -31.5674    39.9997 H6            1 RES     
    5062 H6         -59.2872   -32.7784    40.9523 H6            1 RES     
    5063 H6         -57.5608   -31.6786    42.3303 H6            1 RES     
    5064 H6         -59.2287   -31.3634    42.9191 H6            1 RES     
    5065 H6         -58.3110   -30.0639    42.0499 H6            1 RES     
    5066 H6         -64.3885   -29.8040    37.7883 H6            1 RES     
    5067 H6         -65.1073   -28.2351    37.2613 H6            1 RES     
    5068 H6         -63.1341   -27.2408    36.5743 H6            1 RES     
    5069 H6         -62.1146   -28.6336    36.8062 H6            1 RES     
    5070 H6         -62.5606   -28.0006    34.6198 H6            1 RES     
    5071 H6         -64.2643   -28.4806    34.6413 H6            1 RES     
    5072 H6         -63.5455   -30.8895    34.6608 H6            1 RES     
    5073 H6         -61.8849   -30.4433    35.2068 H6            1 RES     
    5074 H6         -61.3705   -29.2169    33.1924 H6            1 RES     
    5075 H6         -62.9887   -29.5506    32.4704 H6            1 RES     
    5076 H6         -62.4109   -31.9417    32.2383 H6            1 RES     
    5077 H6         -60.8520   -31.6963    33.1242 H6            1 RES     
    5078 H6         -60.0444   -30.1061    31.4021 H6            1 RES     
    5079 H6         -61.5893   -30.2512    30.4849 H6            1 RES     
    5080 H6         -61.1130   -32.6493    30.0290 H6            1 RES     
    5081 H6         -59.5695   -32.5336    30.9768 H6            1 RES     
    5082 H6         -59.7778   -31.5825    29.4615 H6            1 RES     
    5083 C0         -67.5586   -17.6159    46.7882 C0            1 RES     
    5084 C1         -68.8951   -17.4504    46.5536 C1            1 RES     
    5085 C1         -69.6630   -18.3872    47.1450 C1            1 RES     
    5086 C1         -68.9448   -19.2759    47.7571 C1            1 RES     
    5087 C1         -67.5114   -18.9773    47.5932 C1            1 RES     
    5088 C1         -67.2064   -20.2456    46.8104 C1            1 RES     
    5089 C1         -68.1218   -21.2555    46.8803 C1            1 RES     
    5090 S2         -69.4673   -20.9262    48.0684 S2            1 RES     
    5091 C1         -68.0642   -22.5043    46.0102 C1            1 RES     
    5092 C1         -66.8754   -22.8647    45.3099 C1            1 RES     
    5093 N3         -66.8220   -23.9682    44.5088 N3            1 RES     
    5094 C1         -67.8851   -24.7783    44.3063 C1            1 RES     
    5095 C1         -69.0857   -24.4793    44.9382 C1            1 RES     
    5096 C1         -69.1783   -23.3443    45.8000 C1            1 RES     
    5097 N3         -70.4097   -23.1496    46.3509 N3            1 RES     
    5098 S2         -71.2925   -24.4076    45.7327 S2            1 RES     
    5099 N3         -70.2125   -25.2155    44.7795 N3            1 RES     
    5100 S2         -71.2874   -18.2675    46.7599 S2            1 RES     
    5101 C1         -71.0267   -16.9151    45.7748 C1            1 RES     
    5102 C1         -69.6607   -16.6117    45.7263 C1            1 RES     
    5103 C0         -67.0667   -16.3161    47.5902 C0            1 RES     
    5104 C0         -67.5843   -14.9977    48.3573 C0            1 RES     
    5105 C0         -68.5948   -14.0967    47.5796 C0            1 RES     
    5106 C0         -69.9107   -13.9300    48.3630 C0            1 RES     
    5107 C0         -71.0244   -13.2115    47.5801 C0            1 RES     
    5108 C0         -72.2438   -13.0037    48.4985 C0            1 RES     
    5109 C0         -73.4746   -12.4760    47.7506 C0            1 RES     
    5110 C0         -74.6389   -12.2562    48.7192 C0            1 RES     
    5111 C0         -66.2586   -14.1779    48.6875 C0            1 RES     
    5112 C0         -66.1587   -12.8008    49.4158 C0            1 RES     
    5113 C0         -66.3768   -11.5148    48.5611 C0            1 RES     
    5114 C0         -65.5774   -10.3043    49.1341 C0            1 RES     
    5115 C0         -65.6737    -9.0317    48.2672 C0            1 RES     
    5116 C0         -64.5322    -8.0103    48.5104 C0            1 RES     
    5117 C0         -64.4051    -7.4858    49.9481 C0            1 RES     
    5118 C0         -63.2737    -6.4537    50.0494 C0            1 RES     
    5119 C0         -66.6647   -17.5370    45.4586 C0            1 RES     
    5120 C0         -65.0304   -17.4620    45.3601 C0            1 RES     
    5121 C0         -64.4223   -16.1863    46.0700 C0            1 RES     
    5122 C0         -62.9718   -15.8017    45.7968 C0            1 RES     
    5123 C0         -62.5180   -14.4596    46.3987 C0            1 RES     
    5124 C0         -62.3429   -14.5112    47.9307 C0            1 RES     
    5125 C0         -61.4227   -13.3912    48.4491 C0            1 RES     
    5126 C0         -62.0008   -11.9960    48.2867 C0            1 RES     
    5127 C0         -64.1564   -18.7799    45.5783 C0            1 RES     
    5128 C0         -62.8682   -18.7809    44.6703 C0            1 RES     
    5129 C0         -61.9043   -19.9910    44.5282 C0            1 RES     
    5130 C0         -60.7269   -20.1496    45.5453 C0            1 RES     
    5131 C0         -59.5106   -20.7830    44.8006 C0            1 RES     
    5132 C0         -58.2168   -21.0088    45.6125 C0            1 RES     
    5133 C0         -57.0694   -21.3923    44.6445 C0            1 RES     
    5134 C0         -55.7492   -21.6983    45.3503 C0            1 RES     
    5135 H4         -66.3678   -20.3054    46.1674 H4            1 RES     
    5136 H5         -65.9738   -22.2831    45.4127 H5            1 RES     
    5137 H4         -69.2680   -15.8331    45.0919 H4            1 RES     
    5138 H6         -66.3418   -16.7518    48.3107 H6            1 RES     
    5139 H6         -66.6171   -15.7107    46.8292 H6            1 RES     
    5140 H6         -68.0400   -15.3055    49.3241 H6            1 RES     
    5141 H6         -68.1816   -13.0934    47.3719 H6            1 RES     
    5142 H6         -68.7669   -14.4847    46.5824 H6            1 RES     
    5143 H6         -70.2985   -14.9356    48.6376 H6            1 RES     
    5144 H6         -69.6831   -13.3658    49.2943 H6            1 RES     
    5145 H6         -70.6777   -12.2234    47.2050 H6            1 RES     
    5146 H6         -71.3067   -13.8447    46.7100 H6            1 RES     
    5147 H6         -71.9620   -12.2888    49.3038 H6            1 RES     
    5148 H6         -72.5224   -13.9732    48.9663 H6            1 RES     
    5149 H6         -73.2415   -11.5154    47.2433 H6            1 RES     
    5150 H6         -73.7831   -13.2211    46.9846 H6            1 RES     
    5151 H6         -74.8898   -13.2006    49.2492 H6            1 RES     
    5152 H6         -74.3732   -11.4820    49.4709 H6            1 RES     
    5153 H6         -75.5375   -11.9155    48.1632 H6            1 RES     
    5154 H6         -65.6632   -14.8697    49.3229 H6            1 RES     
    5155 H6         -65.6776   -14.0288    47.7501 H6            1 RES     
    5156 H6         -66.7138   -12.7726    50.3750 H6            1 RES     
    5157 H6         -65.0778   -12.7647    49.6797 H6            1 RES     
    5158 H6         -65.9602   -11.6915    47.5437 H6            1 RES     
    5159 H6         -67.4559   -11.2769    48.4675 H6            1 RES     
    5160 H6         -65.8759   -10.0741    50.1786 H6            1 RES     
    5161 H6         -64.5152   -10.5913    49.1447 H6            1 RES     
    5162 H6         -65.5785    -9.3167    47.1965 H6            1 RES     
    5163 H6         -66.6694    -8.5605    48.4092 H6            1 RES     
    5164 H6         -64.6980    -7.1462    47.8294 H6            1 RES     
    5165 H6         -63.5652    -8.4819    48.2251 H6            1 RES     
    5166 H6         -64.1731    -8.3273    50.6345 H6            1 RES     
    5167 H6         -65.3554    -7.0076    50.2641 H6            1 RES     
    5168 H6         -63.4846    -5.5783    49.3977 H6            1 RES     
    5169 H6         -62.3027    -6.9002    49.7429 H6            1 RES     
    5170 H6         -63.1776    -6.0947    51.0961 H6            1 RES     
    5171 H6         -66.9877   -18.3731    44.8003 H6            1 RES     
    5172 H6         -66.9937   -16.6209    44.9167 H6            1 RES     
    5173 H6         -64.9251   -17.2709    44.2702 H6            1 RES     
    5174 H6         -64.5070   -16.2920    47.1681 H6            1 RES     
    5175 H6         -64.9871   -15.3095    45.6869 H6            1 RES     
    5176 H6         -62.2956   -16.5519    46.2432 H6            1 RES     
    5177 H6         -62.8510   -15.7314    44.6941 H6            1 RES     
    5178 H6         -61.5133   -14.2785    45.9613 H6            1 RES     
    5179 H6         -63.1812   -13.6220    46.0873 H6            1 RES     
    5180 H6         -61.8220   -15.4563    48.1934 H6            1 RES     
    5181 H6         -63.3249   -14.5092    48.4489 H6            1 RES     
    5182 H6         -60.4476   -13.4458    47.9180 H6            1 RES     
    5183 H6         -61.2313   -13.5581    49.5313 H6            1 RES     
    5184 H6         -61.2752   -11.2464    48.6693 H6            1 RES     
    5185 H6         -62.9178   -11.9398    48.8904 H6            1 RES     
    5186 H6         -62.2229   -11.7620    47.2255 H6            1 RES     
    5187 H6         -63.9534   -18.9624    46.6563 H6            1 RES     
    5188 H6         -64.7112   -19.6376    45.1645 H6            1 RES     
    5189 H6         -63.2778   -18.6392    43.6470 H6            1 RES     
    5190 H6         -62.1940   -17.9443    44.8198 H6            1 RES     
    5191 H6         -61.3989   -19.7300    43.5712 H6            1 RES     
    5192 H6         -62.4256   -20.9518    44.3372 H6            1 RES     
    5193 H6         -61.0470   -20.7432    46.4291 H6            1 RES     
    5194 H6         -60.3858   -19.1514    45.8965 H6            1 RES     
    5195 H6         -59.2438   -20.0768    43.9818 H6            1 RES     
    5196 H6         -59.8090   -21.7506    44.3427 H6            1 RES     
    5197 H6         -58.3812   -21.8164    46.3582 H6            1 RES     
    5198 H6         -57.9255   -20.0779    46.1458 H6            1 RES     
    5199 H6         -56.8919   -20.5471    43.9417 H6            1 RES     
    5200 H6         -57.3557   -22.2856    44.0483 H6            1 RES     
    5201 H6         -55.8592   -22.5818    46.0126 H6            1 RES     
    5202 H6         -55.4042   -20.8261    45.9437 H6            1 RES     
    5203 H6         -54.9716   -21.9299    44.5877 H6            1 RES     
    5204 C0         -76.1795   -13.2159    39.1000 C0            1 RES     
    5205 C1         -77.0307   -14.2855    39.1157 C1            1 RES     
    5206 C1         -77.5843   -14.5122    40.3235 C1            1 RES     
    5207 C1         -77.1300   -13.6916    41.2182 C1            1 RES     
    5208 C1         -76.1380   -12.7806    40.6208 C1            1 RES     
    5209 C1         -74.9774   -13.2863    41.4643 C1            1 RES     
    5210 C1         -75.2875   -13.9955    42.5885 C1            1 RES     
    5211 S2         -77.0774   -14.0376    42.9418 S2            1 RES     
    5212 C1         -74.2534   -14.7318    43.4302 C1            1 RES     
    5213 C1         -72.8605   -14.4545    43.3015 C1            1 RES     
    5214 N3         -71.9253   -15.1263    44.0337 N3            1 RES     
    5215 C1         -72.2453   -16.1064    44.9081 C1            1 RES     
    5216 C1         -73.5818   -16.4483    45.0720 C1            1 RES     
    5217 C1         -74.5934   -15.7564    44.3388 C1            1 RES     
    5218 N3         -75.8633   -16.1902    44.5768 N3            1 RES     
    5219 S2         -75.6374   -17.3981    45.6879 S2            1 RES     
    5220 N3         -74.0004   -17.4320    45.9051 N3            1 RES     
    5221 S2         -78.5276   -15.8935    40.3832 S2            1 RES     
    5222 C1         -78.2402   -16.2455    38.7520 C1            1 RES     
    5223 C1         -77.3678   -15.2983    38.2022 C1            1 RES     
    5224 C0         -76.8067   -12.1421    38.0861 C0            1 RES     
    5225 C0         -78.1248   -11.7882    37.2305 C0            1 RES     
    5226 C0         -78.6864   -12.9271    36.3221 C0            1 RES     
    5227 C0         -80.1475   -13.2574    36.6811 C0            1 RES     
    5228 C0         -80.7109   -14.4942    35.9584 C0            1 RES     
    5229 C0         -82.2025   -14.6565    36.3078 C0            1 RES     
    5230 C0         -82.7987   -15.9731    35.7944 C0            1 RES     
    5231 C0         -84.2871   -16.0601    36.1398 C0            1 RES     
    5232 C0         -77.7030   -10.5345    36.3421 C0            1 RES     
    5233 C0         -78.5874    -9.7743    35.3045 C0            1 RES     
    5234 C0         -78.6902   -10.3725    33.8679 C0            1 RES     
    5235 C0         -78.9292    -9.2605    32.8007 C0            1 RES     
    5236 C0         -78.9343    -9.7849    31.3497 C0            1 RES     
    5237 C0         -78.6624    -8.6952    30.2801 C0            1 RES     
    5238 C0         -79.6482    -7.5179    30.2656 C0            1 RES     
    5239 C0         -79.3002    -6.5348    29.1395 C0            1 RES     
    5240 C0         -74.7690   -13.5354    38.4062 C0            1 RES     
    5241 C0         -73.5942   -12.4671    37.9998 C0            1 RES     
    5242 C0         -74.0749   -11.3817    36.9549 C0            1 RES     
    5243 C0         -73.0356   -10.5261    36.2377 C0            1 RES     
    5244 C0         -73.5823    -9.6158    35.1233 C0            1 RES     
    5245 C0         -74.3800    -8.4103    35.6627 C0            1 RES     
    5246 C0         -74.4678    -7.2651    34.6376 C0            1 RES     
    5247 C0         -75.2866    -7.6053    33.4044 C0            1 RES     
    5248 C0         -72.6313   -11.8732    39.1260 C0            1 RES     
    5249 C0         -71.1742   -11.6301    38.5768 C0            1 RES     
    5250 C0         -69.9673   -11.2170    39.4637 C0            1 RES     
    5251 C0         -69.7095    -9.6993    39.7392 C0            1 RES     
    5252 C0         -68.1695    -9.4688    39.8417 C0            1 RES     
    5253 C0         -67.6798    -8.0251    40.0873 C0            1 RES     
    5254 C0         -66.1432    -7.9699    39.8960 C0            1 RES     
    5255 C0         -65.5405    -6.5937    40.1741 C0            1 RES     
    5256 H4         -73.9751   -13.1724    41.1436 H4            1 RES     
    5257 H5         -72.5079   -13.6856    42.6335 H5            1 RES     
    5258 H4         -76.9916   -15.3813    37.1949 H4            1 RES     
    5259 H6         -76.5811   -11.1829    38.5992 H6            1 RES     
    5260 H6         -76.2493   -12.2976    37.1844 H6            1 RES     
    5261 H6         -78.9223   -11.4531    37.9296 H6            1 RES     
    5262 H6         -78.6403   -12.6639    35.2502 H6            1 RES     
    5263 H6         -78.0523   -13.8047    36.3701 H6            1 RES     
    5264 H6         -80.2161   -13.4557    37.7735 H6            1 RES     
    5265 H6         -80.7674   -12.3662    36.4381 H6            1 RES     
    5266 H6         -80.6030   -14.3980    34.8554 H6            1 RES     
    5267 H6         -80.1413   -15.3882    36.2961 H6            1 RES     
    5268 H6         -82.7629   -13.7987    35.8727 H6            1 RES     
    5269 H6         -82.3265   -14.6373    37.4126 H6            1 RES     
    5270 H6         -82.6791   -16.0530    34.6927 H6            1 RES     
    5271 H6         -82.2701   -16.8251    36.2758 H6            1 RES     
    5272 H6         -84.4392   -15.9744    37.2377 H6            1 RES     
    5273 H6         -84.8477   -15.2443    35.6347 H6            1 RES     
    5274 H6         -84.6998   -17.0341    35.8026 H6            1 RES     
    5275 H6         -77.4213    -9.7574    37.0862 H6            1 RES     
    5276 H6         -76.7774   -10.7820    35.7760 H6            1 RES     
    5277 H6         -79.5737    -9.4712    35.7099 H6            1 RES     
    5278 H6         -78.0072    -8.8352    35.1608 H6            1 RES     
    5279 H6         -77.7102   -10.8313    33.6051 H6            1 RES     
    5280 H6         -79.4746   -11.1547    33.8173 H6            1 RES     
    5281 H6         -79.8629    -8.6941    33.0016 H6            1 RES     
    5282 H6         -78.0875    -8.5552    32.8713 H6            1 RES     
    5283 H6         -78.1064   -10.5173    31.2280 H6            1 RES     
    5284 H6         -79.8908   -10.3125    31.1493 H6            1 RES     
    5285 H6         -78.6794    -9.1864    29.2820 H6            1 RES     
    5286 H6         -77.6378    -8.2894    30.4372 H6            1 RES     
    5287 H6         -79.5965    -6.9742    31.2325 H6            1 RES     
    5288 H6         -80.6823    -7.8893    30.1098 H6            1 RES     
    5289 H6         -79.3710    -7.0349    28.1493 H6            1 RES     
    5290 H6         -78.2692    -6.1382    29.2654 H6            1 RES     
    5291 H6         -80.0071    -5.6780    29.1493 H6            1 RES     
    5292 H6         -74.2829   -14.3321    39.0110 H6            1 RES     
    5293 H6         -75.0045   -14.0338    37.4381 H6            1 RES     
    5294 H6         -72.9231   -13.1466    37.4311 H6            1 RES     
    5295 H6         -74.7682   -10.6715    37.4438 H6            1 RES     
    5296 H6         -74.5580   -11.9348    36.1211 H6            1 RES     
    5297 H6         -72.5601    -9.8350    36.9558 H6            1 RES     
    5298 H6         -72.3012   -11.2191    35.7730 H6            1 RES     
    5299 H6         -72.6790    -9.2105    34.6202 H6            1 RES     
    5300 H6         -74.1638   -10.1907    34.3684 H6            1 RES     
    5301 H6         -73.8286    -7.9819    36.5263 H6            1 RES     
    5302 H6         -75.3846    -8.7194    36.0206 H6            1 RES     
    5303 H6         -73.4407    -6.9766    34.3249 H6            1 RES     
    5304 H6         -74.9358    -6.3832    35.1262 H6            1 RES     
    5305 H6         -75.2905    -6.7376    32.7101 H6            1 RES     
    5306 H6         -76.3182    -7.8018    33.7296 H6            1 RES     
    5307 H6         -74.8776    -8.4851    32.8668 H6            1 RES     
    5308 H6         -73.0829   -10.9881    39.6253 H6            1 RES     
    5309 H6         -72.4490   -12.6586    39.8774 H6            1 RES     
    5310 H6         -70.8854   -12.6240    38.1721 H6            1 RES     
    5311 H6         -71.1032   -10.9530    37.7322 H6            1 RES     
    5312 H6         -69.1237   -11.5167    38.8018 H6            1 RES     
    5313 H6         -69.8602   -11.8336    40.3800 H6            1 RES     
    5314 H6         -70.2560    -9.3654    40.6479 H6            1 RES     
    5315 H6         -70.0545    -9.0885    38.8766 H6            1 RES     
    5316 H6         -67.7416    -9.7791    38.8614 H6            1 RES     
    5317 H6         -67.7405   -10.1222    40.6315 H6            1 RES     
    5318 H6         -67.9541    -7.7089    41.1168 H6            1 RES     
    5319 H6         -68.1464    -7.3275    39.3583 H6            1 RES     
    5320 H6         -65.9001    -8.2419    38.8439 H6            1 RES     
    5321 H6         -65.6486    -8.7042    40.5679 H6            1 RES     
    5322 H6         -65.6976    -6.3087    41.2350 H6            1 RES     
    5323 H6         -65.9848    -5.8235    39.5098 H6            1 RES     
    5324 H6         -64.4444    -6.6286    39.9819 H6            1 RES     
    5325 C0         -79.1136   -24.0946    34.0174 C0            1 RES     
    5326 C1         -79.3235   -24.8055    35.1660 C1            1 RES     
    5327 C1         -80.3672   -24.3563    35.8911 C1            1 RES     
    5328 C1         -80.9007   -23.3024    35.3571 C1            1 RES     
    5329 C1         -80.1772   -22.9284    34.1293 C1            1 RES     
    5330 C1         -79.6967   -21.5894    34.6682 C1            1 RES     
    5331 C1         -80.3411   -21.0919    35.7638 C1            1 RES     
    5332 S2         -81.7929   -22.0821    36.2560 S2            1 RES     
    5333 C1         -79.8628   -19.8705    36.5380 C1            1 RES     
    5334 C1         -78.9129   -18.9652    35.9797 C1            1 RES     
    5335 N3         -78.4605   -17.8819    36.6754 N3            1 RES     
    5336 C1         -78.8586   -17.6031    37.9369 C1            1 RES     
    5337 C1         -79.7670   -18.4525    38.5562 C1            1 RES     
    5338 C1         -80.2796   -19.5867    37.8558 C1            1 RES     
    5339 N3         -81.1529   -20.3488    38.5728 N3            1 RES     
    5340 S2         -81.2307   -19.5529    40.0236 S2            1 RES     
    5341 N3         -80.2075   -18.2717    39.8251 N3            1 RES     
    5342 S2         -80.5535   -25.1384    37.3590 S2            1 RES     
    5343 C1         -79.2231   -26.1456    37.0715 C1            1 RES     
    5344 C1         -78.6257   -25.8158    35.8488 C1            1 RES     
    5345 C0         -79.3262   -25.1153    32.7978 C0            1 RES     
    5346 C0         -79.8533   -26.5908    32.4238 C0            1 RES     
    5347 C0         -79.2690   -27.7683    33.2662 C0            1 RES     
    5348 C0         -80.3883   -28.5634    33.9647 C0            1 RES     
    5349 C0         -79.8829   -29.6222    34.9612 C0            1 RES     
    5350 C0         -81.0796   -30.4241    35.5074 C0            1 RES     
    5351 C0         -80.6960   -31.3666    36.6551 C0            1 RES     
    5352 C0         -81.9157   -32.1597    37.1299 C0            1 RES     
    5353 C0         -79.4764   -26.7749    30.8867 C0            1 RES     
    5354 C0         -79.7387   -28.0295    29.9956 C0            1 RES     
    5355 C0         -78.7093   -29.1985    30.0740 C0            1 RES     
    5356 C0         -78.6322   -29.9842    28.7288 C0            1 RES     
    5357 C0         -77.5530   -31.0867    28.7161 C0            1 RES     
    5358 C0         -77.1092   -31.5240    27.2958 C0            1 RES     
    5359 C0         -78.2233   -32.0678    26.3896 C0            1 RES     
    5360 C0         -77.6524   -32.5061    25.0340 C0            1 RES     
    5361 C0         -77.5848   -23.6543    33.8121 C0            1 RES     
    5362 C0         -76.9087   -22.9984    32.4708 C0            1 RES     
    5363 C0         -77.0043   -23.9385    31.2027 C0            1 RES     
    5364 C0         -76.1540   -23.6240    29.9761 C0            1 RES     
    5365 C0         -76.1886   -24.6812    28.8578 C0            1 RES     
    5366 C0         -77.5211   -24.6971    28.0803 C0            1 RES     
    5367 C0         -77.3764   -25.3442    26.6910 C0            1 RES     
    5368 C0         -77.0672   -26.8306    26.7343 C0            1 RES     
    5369 C0         -77.1451   -21.4567    32.1304 C0            1 RES     
    5370 C0         -75.8799   -20.8108    31.4478 C0            1 RES     
    5371 C0         -75.7325   -19.2938    31.1467 C0            1 RES     
    5372 C0         -76.2809   -18.7293    29.7952 C0            1 RES     
    5373 C0         -75.3526   -17.5637    29.3319 C0            1 RES     
    5374 C0         -75.6933   -16.8696    27.9954 C0            1 RES     
    5375 C0         -74.5226   -15.9374    27.5936 C0            1 RES     
    5376 C0         -74.7794   -15.1506    26.3092 C0            1 RES     
    5377 H4         -78.8418   -21.1112    34.2673 H4            1 RES     
    5378 H5         -78.5406   -19.1009    34.9773 H5            1 RES     
    5379 H4         -77.7148   -26.2836    35.5105 H4            1 RES     
    5380 H6         -79.8369   -24.4739    32.0480 H6            1 RES     
    5381 H6         -78.3268   -25.3919    32.5288 H6            1 RES     
    5382 H6         -80.9627   -26.6019    32.5026 H6            1 RES     
    5383 H6         -78.6768   -28.4668    32.6483 H6            1 RES     
    5384 H6         -78.5318   -27.4061    33.9732 H6            1 RES     
    5385 H6         -81.0327   -27.8577    34.5340 H6            1 RES     
    5386 H6         -81.0011   -29.0530    33.1759 H6            1 RES     
    5387 H6         -79.1669   -30.3211    34.4750 H6            1 RES     
    5388 H6         -79.3623   -29.1003    35.7943 H6            1 RES     
    5389 H6         -81.5207   -31.0136    34.6725 H6            1 RES     
    5390 H6         -81.8505   -29.7206    35.8909 H6            1 RES     
    5391 H6         -79.9077   -32.0785    36.3293 H6            1 RES     
    5392 H6         -80.3075   -30.7654    37.5063 H6            1 RES     
    5393 H6         -82.7265   -31.4722    37.4550 H6            1 RES     
    5394 H6         -82.2987   -32.8044    36.3097 H6            1 RES     
    5395 H6         -81.6383   -32.8070    37.9882 H6            1 RES     
    5396 H6         -80.0222   -25.9531    30.3733 H6            1 RES     
    5397 H6         -78.3913   -26.5697    30.7490 H6            1 RES     
    5398 H6         -80.7882   -28.3841    30.0384 H6            1 RES     
    5399 H6         -79.5914   -27.6133    28.9737 H6            1 RES     
    5400 H6         -77.6942   -28.7662    30.2245 H6            1 RES     
    5401 H6         -78.9380   -29.8744    30.9228 H6            1 RES     
    5402 H6         -79.6167   -30.4151    28.4494 H6            1 RES     
    5403 H6         -78.3474   -29.2641    27.9470 H6            1 RES     
    5404 H6         -76.6298   -30.6932    29.1953 H6            1 RES     
    5405 H6         -77.9040   -31.9563    29.3112 H6            1 RES     
    5406 H6         -76.3282   -32.3081    27.4098 H6            1 RES     
    5407 H6         -76.6392   -30.6535    26.7855 H6            1 RES     
    5408 H6         -78.9803   -31.2754    26.2102 H6            1 RES     
    5409 H6         -78.7135   -32.9396    26.8705 H6            1 RES     
    5410 H6         -76.9104   -33.3228    25.1689 H6            1 RES     
    5411 H6         -77.1553   -31.6546    24.5204 H6            1 RES     
    5412 H6         -78.4683   -32.8801    24.3796 H6            1 RES     
    5413 H6         -77.3220   -22.9877    34.6626 H6            1 RES     
    5414 H6         -76.9722   -24.5689    33.9835 H6            1 RES     
    5415 H6         -75.8405   -23.0248    32.7774 H6            1 RES     
    5416 H6         -78.0504   -23.9802    30.8447 H6            1 RES     
    5417 H6         -76.6269   -24.9353    31.5165 H6            1 RES     
    5418 H6         -76.5167   -22.6976    29.4971 H6            1 RES     
    5419 H6         -75.1004   -23.5345    30.3189 H6            1 RES     
    5420 H6         -75.3983   -24.3647    28.1445 H6            1 RES     
    5421 H6         -75.9202   -25.6925    29.2369 H6            1 RES     
    5422 H6         -77.8231   -23.6475    27.8789 H6            1 RES     
    5423 H6         -78.3285   -25.1749    28.6742 H6            1 RES     
    5424 H6         -76.5734   -24.8211    26.1274 H6            1 RES     
    5425 H6         -78.3281   -25.2090    26.1329 H6            1 RES     
    5426 H6         -76.9643   -27.2190    25.6982 H6            1 RES     
    5427 H6         -77.9149   -27.3363    27.2182 H6            1 RES     
    5428 H6         -76.1275   -27.0412    27.2846 H6            1 RES     
    5429 H6         -78.0932   -21.3023    31.5700 H6            1 RES     
    5430 H6         -77.1887   -20.8942    33.0771 H6            1 RES     
    5431 H6         -75.0635   -21.0241    32.1710 H6            1 RES     
    5432 H6         -75.5622   -21.2784    30.5219 H6            1 RES     
    5433 H6         -74.6268   -19.2199    31.0395 H6            1 RES     
    5434 H6         -75.9920   -18.6445    32.0084 H6            1 RES     
    5435 H6         -77.3429   -18.4179    29.9003 H6            1 RES     
    5436 H6         -76.2184   -19.5054    29.0015 H6            1 RES     
    5437 H6         -74.3383   -18.0050    29.2027 H6            1 RES     
    5438 H6         -75.2961   -16.7867    30.1245 H6            1 RES     
    5439 H6         -76.6326   -16.2862    28.1075 H6            1 RES     
    5440 H6         -75.8297   -17.6236    27.1899 H6            1 RES     
    5441 H6         -73.6076   -16.5528    27.4388 H6            1 RES     
    5442 H6         -74.3181   -15.2093    28.4080 H6            1 RES     
    5443 H6         -75.6446   -14.4678    26.4391 H6            1 RES     
    5444 H6         -74.9667   -15.8340    25.4550 H6            1 RES     
    5445 H6         -73.8828   -14.5345    26.0720 H6            1 RES     
    5446 C0         -74.0369   -31.1041    42.8424 C0            1 RES     
    5447 C1         -74.6255   -30.5203    43.9294 C1            1 RES     
    5448 C1         -75.9649   -30.6686    43.9577 C1            1 RES     
    5449 C1         -76.3990   -31.2854    42.9033 C1            1 RES     
    5450 C1         -75.2787   -31.6131    42.0042 C1            1 RES     
    5451 C1         -75.7671   -30.7296    40.8661 C1            1 RES     
    5452 C1         -77.0724   -30.3321    40.9026 C1            1 RES     
    5453 S2         -78.0234   -31.1086    42.2528 S2            1 RES     
    5454 C1         -77.6631   -29.2974    39.9538 C1            1 RES     
    5455 C1         -76.9909   -28.9253    38.7524 C1            1 RES     
    5456 N3         -77.5007   -27.9816    37.9087 N3            1 RES     
    5457 C1         -78.6549   -27.3234    38.1577 C1            1 RES     
    5458 C1         -79.3562   -27.6163    39.3208 C1            1 RES     
    5459 C1         -78.8668   -28.6113    40.2209 C1            1 RES     
    5460 N3         -79.6355   -28.7995    41.3305 N3            1 RES     
    5461 S2         -80.8727   -27.7204    41.1085 S2            1 RES     
    5462 N3         -80.5084   -26.9943    39.6704 N3            1 RES     
    5463 S2         -76.7065   -29.8501    45.2151 S2            1 RES     
    5464 C1         -75.2292   -29.2620    45.7973 C1            1 RES     
    5465 C1         -74.1839   -29.6786    44.9640 C1            1 RES     
    5466 C0         -73.0615   -32.2475    43.4046 C0            1 RES     
    5467 C0         -72.6566   -33.0628    44.7335 C0            1 RES     
    5468 C0         -72.3304   -32.2069    45.9978 C0            1 RES     
    5469 C0         -73.2476   -32.5823    47.1772 C0            1 RES     
    5470 C0         -73.1147   -31.6562    48.3996 C0            1 RES     
    5471 C0         -73.9901   -32.1944    49.5475 C0            1 RES     
    5472 C0         -74.0780   -31.2302    50.7371 C0            1 RES     
    5473 C0         -74.9290   -31.8341    51.8567 C0            1 RES     
    5474 C0         -71.3831   -33.9200    44.3069 C0            1 RES     
    5475 C0         -70.5576   -34.8931    45.2061 C0            1 RES     
    5476 C0         -69.4552   -34.2727    46.1184 C0            1 RES     
    5477 C0         -68.2871   -35.2758    46.3674 C0            1 RES     
    5478 C0         -67.1186   -34.6775    47.1780 C0            1 RES     
    5479 C0         -65.7766   -35.4371    47.0121 C0            1 RES     
    5480 C0         -65.7992   -36.9202    47.4098 C0            1 RES     
    5481 C0         -64.4077   -37.5460    47.2435 C0            1 RES     
    5482 C0         -73.0051   -30.1391    42.0827 C0            1 RES     
    5483 C0         -71.9524   -30.5450    40.8938 C0            1 RES     
    5484 C0         -70.8953   -31.6319    41.3434 C0            1 RES     
    5485 C0         -69.6651   -31.8786    40.4759 C0            1 RES     
    5486 C0         -68.6140   -32.8313    41.0733 C0            1 RES     
    5487 C0         -69.0627   -34.3074    41.0693 C0            1 RES     
    5488 C0         -67.8714   -35.2779    41.1629 C0            1 RES     
    5489 C0         -67.1337   -35.2198    42.4893 C0            1 RES     
    5490 C0         -72.4774   -30.7575    39.4013 C0            1 RES     
    5491 C0         -71.4131   -30.2887    38.3377 C0            1 RES     
    5492 C0         -71.6849   -30.2112    36.8100 C0            1 RES     
    5493 C0         -71.4478   -31.4816    35.9293 C0            1 RES     
    5494 C0         -70.9450   -31.0242    34.5247 C0            1 RES     
    5495 C0         -70.6197   -32.1244    33.4912 C0            1 RES     
    5496 C0         -69.8991   -31.4850    32.2776 C0            1 RES     
    5497 C0         -69.5815   -32.4784    31.1610 C0            1 RES     
    5498 H4         -75.1003   -30.3646    40.1296 H4            1 RES     
    5499 H5         -76.0663   -29.3989    38.4652 H5            1 RES     
    5500 H4         -73.1675   -29.3489    45.1099 H4            1 RES     
    5501 H6         -73.1953   -33.0537    42.6520 H6            1 RES     
    5502 H6         -72.0963   -31.7832    43.3816 H6            1 RES     
    5503 H6         -73.4760   -33.7744    44.9768 H6            1 RES     
    5504 H6         -71.2803   -32.3253    46.3197 H6            1 RES     
    5505 H6         -72.3822   -31.1487    45.7693 H6            1 RES     
    5506 H6         -74.3070   -32.5335    46.8418 H6            1 RES     
    5507 H6         -73.0117   -33.6287    47.4720 H6            1 RES     
    5508 H6         -72.0587   -31.5954    48.7438 H6            1 RES     
    5509 H6         -73.4541   -30.6379    48.1074 H6            1 RES     
    5510 H6         -73.5692   -33.1676    49.8865 H6            1 RES     
    5511 H6         -75.0233   -32.3657    49.1740 H6            1 RES     
    5512 H6         -73.0649   -31.0069    51.1349 H6            1 RES     
    5513 H6         -74.5500   -30.2804    50.4026 H6            1 RES     
    5514 H6         -75.9483   -32.0765    51.4854 H6            1 RES     
    5515 H6         -74.4561   -32.7635    52.2409 H6            1 RES     
    5516 H6         -75.0225   -31.1123    52.6951 H6            1 RES     
    5517 H6         -71.7528   -34.5597    43.4757 H6            1 RES     
    5518 H6         -70.6161   -33.2429    43.8692 H6            1 RES     
    5519 H6         -71.1864   -35.6320    45.7424 H6            1 RES     
    5520 H6         -69.9817   -35.4669    44.4457 H6            1 RES     
    5521 H6         -68.9976   -33.4101    45.5833 H6            1 RES     
    5522 H6         -69.8860   -33.9109    47.0740 H6            1 RES     
    5523 H6         -68.6448   -36.2089    46.8515 H6            1 RES     
    5524 H6         -67.8744   -35.5455    45.3836 H6            1 RES     
    5525 H6         -66.9123   -33.6492    46.8081 H6            1 RES     
    5526 H6         -67.4080   -34.6052    48.2479 H6            1 RES     
    5527 H6         -65.0116   -34.9147    47.6283 H6            1 RES     
    5528 H6         -65.4564   -35.3667    45.9484 H6            1 RES     
    5529 H6         -66.5104   -37.4716    46.7592 H6            1 RES     
    5530 H6         -66.1150   -37.0256    48.4684 H6            1 RES     
    5531 H6         -63.6707   -37.0399    47.9040 H6            1 RES     
    5532 H6         -64.0595   -37.4618    46.1910 H6            1 RES     
    5533 H6         -64.4387   -38.6225    47.5155 H6            1 RES     
    5534 H6         -73.5887   -29.2684    41.7110 H6            1 RES     
    5535 H6         -72.3449   -29.7084    42.8699 H6            1 RES     
    5536 H6         -71.3841   -29.5921    40.8247 H6            1 RES     
    5537 H6         -71.3914   -32.6147    41.4536 H6            1 RES     
    5538 H6         -70.4563   -31.2726    42.2987 H6            1 RES     
    5539 H6         -69.9666   -32.3541    39.5260 H6            1 RES     
    5540 H6         -69.1721   -30.8954    40.3151 H6            1 RES     
    5541 H6         -67.7413   -32.7537    40.3908 H6            1 RES     
    5542 H6         -68.2860   -32.5026    42.0846 H6            1 RES     
    5543 H6         -69.5373   -34.5280    40.0897 H6            1 RES     
    5544 H6         -69.8147   -34.5022    41.8627 H6            1 RES     
    5545 H6         -67.1577   -35.0590    40.3391 H6            1 RES     
    5546 H6         -68.2442   -36.3159    41.0241 H6            1 RES     
    5547 H6         -66.2835   -35.9352    42.4733 H6            1 RES     
    5548 H6         -67.8363   -35.5242    43.2782 H6            1 RES     
    5549 H6         -66.7368   -34.2052    42.6971 H6            1 RES     
    5550 H6         -72.8534   -31.7921    39.2433 H6            1 RES     
    5551 H6         -73.2956   -30.0430    39.2153 H6            1 RES     
    5552 H6         -71.2073   -29.2364    38.6300 H6            1 RES     
    5553 H6         -70.4511   -30.7872    38.3924 H6            1 RES     
    5554 H6         -70.8738   -29.5145    36.4998 H6            1 RES     
    5555 H6         -72.6338   -29.6955    36.5551 H6            1 RES     
    5556 H6         -72.3692   -32.1014    35.8757 H6            1 RES     
    5557 H6         -70.6315   -32.1010    36.3608 H6            1 RES     
    5558 H6         -69.9943   -30.4709    34.6985 H6            1 RES     
    5559 H6         -71.6778   -30.3234    34.0699 H6            1 RES     
    5560 H6         -71.5599   -32.6203    33.1668 H6            1 RES     
    5561 H6         -69.9433   -32.8867    33.9353 H6            1 RES     
    5562 H6         -68.9379   -31.0403    32.6214 H6            1 RES     
    5563 H6         -70.5239   -30.6725    31.8477 H6            1 RES     
    5564 H6         -70.5174   -32.8980    30.7373 H6            1 RES     
    5565 H6         -68.9367   -33.3017    31.5329 H6            1 RES     
    5566 H6         -69.0366   -31.9507    30.3458 H6            1 RES     
    5567 C0         -73.3141   -22.1912    51.3762 C0            1 RES     
    5568 C1         -74.6070   -21.7507    51.3199 C1            1 RES     
    5569 C1         -75.5056   -22.6743    51.7150 C1            1 RES     
    5570 C1         -74.9353   -23.8023    52.0028 C1            1 RES     
    5571 C1         -73.4805   -23.7097    51.7887 C1            1 RES     
    5572 C1         -73.4499   -24.7469    50.6762 C1            1 RES     
    5573 C1         -74.5309   -25.5727    50.5651 C1            1 RES     
    5574 S2         -75.7368   -25.3655    51.9191 S2            1 RES     
    5575 C1         -74.7437   -26.5268    49.3970 C1            1 RES     
    5576 C1         -73.6748   -26.8714    48.5182 C1            1 RES     
    5577 N3         -73.8618   -27.7060    47.4549 N3            1 RES     
    5578 C1         -75.0637   -28.2436    47.1484 C1            1 RES     
    5579 C1         -76.1586   -27.9364    47.9465 C1            1 RES     
    5580 C1         -76.0015   -27.0821    49.0801 C1            1 RES     
    5581 N3         -77.1494   -26.8465    49.7761 N3            1 RES     
    5582 S2         -78.2758   -27.7240    48.9360 S2            1 RES     
    5583 N3         -77.4075   -28.4054    47.7074 N3            1 RES     
    5584 S2         -77.0965   -22.1886    51.5292 S2            1 RES     
    5585 C1         -76.6378   -20.6798    50.9124 C1            1 RES     
    5586 C1         -75.2430   -20.6033    50.8168 C1            1 RES     
    5587 C0         -72.5556   -21.2604    52.4405 C0            1 RES     
    5588 C0         -72.7865   -20.1365    53.5711 C0            1 RES     
    5589 C0         -73.6493   -18.9036    53.1549 C0            1 RES     
    5590 C0         -74.8746   -18.7444    54.0748 C0            1 RES     
    5591 C0         -75.8726   -17.6660    53.6156 C0            1 RES     
    5592 C0         -76.9894   -17.5208    54.6668 C0            1 RES     
    5593 C0         -78.1356   -16.6135    54.2023 C0            1 RES     
    5594 C0         -79.1938   -16.4797    55.2998 C0            1 RES     
    5595 C0         -71.3191   -19.6680    53.9781 C0            1 RES     
    5596 C0         -70.9346   -18.5793    55.0287 C0            1 RES     
    5597 C0         -70.9523   -17.0905    54.5648 C0            1 RES     
    5598 C0         -69.9187   -16.2320    55.3569 C0            1 RES     
    5599 C0         -69.8197   -14.7726    54.8663 C0            1 RES     
    5600 C0         -68.5002   -14.0588    55.2599 C0            1 RES     
    5601 C0         -68.2128   -13.9770    56.7661 C0            1 RES     
    5602 C0         -66.9077   -13.2127    57.0271 C0            1 RES     
    5603 C0         -72.4833   -21.8986    50.0356 C0            1 RES     
    5604 C0         -70.8693   -22.0689    49.8070 C0            1 RES     
    5605 C0         -70.0054   -21.1547    50.7655 C0            1 RES     
    5606 C0         -68.5231   -20.9535    50.4673 C0            1 RES     
    5607 C0         -67.8034   -19.9214    51.3541 C0            1 RES     
    5608 C0         -67.5702   -20.4192    52.7956 C0            1 RES     
    5609 C0         -66.4372   -19.6513    53.5002 C0            1 RES     
    5610 C0         -66.7563   -18.1898    53.7637 C0            1 RES     
    5611 C0         -70.2429   -23.5210    49.5894 C0            1 RES     
    5612 C0         -69.0201   -23.4844    48.5958 C0            1 RES     
    5613 C0         -68.3022   -24.7504    48.0520 C0            1 RES     
    5614 C0         -67.1283   -25.3730    48.8766 C0            1 RES     
    5615 C0         -66.0845   -25.9685    47.8811 C0            1 RES     
    5616 C0         -64.8181   -26.6177    48.4802 C0            1 RES     
    5617 C0         -63.8064   -26.9040    47.3421 C0            1 RES     
    5618 C0         -62.5337   -27.6042    47.8158 C0            1 RES     
    5619 H4         -72.6671   -24.7650    49.9640 H4            1 RES     
    5620 H5         -72.6780   -26.4965    48.6844 H5            1 RES     
    5621 H4         -74.7437   -19.7560    50.3742 H4            1 RES     
    5622 H6         -71.8905   -21.9898    52.9504 H6            1 RES     
    5623 H6         -72.0382   -20.5518    51.8257 H6            1 RES     
    5624 H6         -73.2459   -20.6185    54.4620 H6            1 RES     
    5625 H6         -73.0690   -17.9638    53.1791 H6            1 RES     
    5626 H6         -73.9355   -18.9695    52.1117 H6            1 RES     
    5627 H6         -75.4273   -19.7089    54.1119 H6            1 RES     
    5628 H6         -74.5046   -18.5026    55.0956 H6            1 RES     
    5629 H6         -75.3681   -16.6838    53.4813 H6            1 RES     
    5630 H6         -76.3061   -17.9810    52.6407 H6            1 RES     
    5631 H6         -76.5443   -17.1105    55.6010 H6            1 RES     
    5632 H6         -77.4193   -18.5219    54.8887 H6            1 RES     
    5633 H6         -77.7538   -15.6025    53.9445 H6            1 RES     
    5634 H6         -78.6106   -17.0588    53.3006 H6            1 RES     
    5635 H6         -79.5891   -17.4787    55.5853 H6            1 RES     
    5636 H6         -78.7562   -15.9959    56.1995 H6            1 RES     
    5637 H6         -80.0393   -15.8569    54.9394 H6            1 RES     
    5638 H6         -70.8320   -20.5955    54.3514 H6            1 RES     
    5639 H6         -70.7645   -19.3650    53.0621 H6            1 RES     
    5640 H6         -71.4303   -18.7244    56.0097 H6            1 RES     
    5641 H6         -69.8545   -18.7950    55.1899 H6            1 RES     
    5642 H6         -70.6225   -17.0473    53.5021 H6            1 RES     
    5643 H6         -71.9725   -16.6622    54.6387 H6            1 RES     
    5644 H6         -70.1214   -16.2513    56.4485 H6            1 RES     
    5645 H6         -68.9278   -16.6812    55.1920 H6            1 RES     
    5646 H6         -69.8279   -14.7646    53.7543 H6            1 RES     
    5647 H6         -70.7044   -14.2015    55.2196 H6            1 RES     
    5648 H6         -68.5359   -13.0261    54.8475 H6            1 RES     
    5649 H6         -67.6503   -14.5863    54.7714 H6            1 RES     
    5650 H6         -68.1077   -15.0008    57.1834 H6            1 RES     
    5651 H6         -69.0435   -13.4546    57.2842 H6            1 RES     
    5652 H6         -66.9843   -12.1698    56.6501 H6            1 RES     
    5653 H6         -66.0503   -13.7111    56.5246 H6            1 RES     
    5654 H6         -66.6992   -13.1754    58.1175 H6            1 RES     
    5655 H6         -72.9843   -22.4572    49.2148 H6            1 RES     
    5656 H6         -72.6633   -20.8279    49.7858 H6            1 RES     
    5657 H6         -70.7812   -21.6061    48.8001 H6            1 RES     
    5658 H6         -70.0572   -21.5421    51.8006 H6            1 RES     
    5659 H6         -70.4167   -20.1261    50.6801 H6            1 RES     
    5660 H6         -67.9761   -21.8978    50.6362 H6            1 RES     
    5661 H6         -68.4425   -20.6043    49.4152 H6            1 RES     
    5662 H6         -66.8038   -19.7948    50.8868 H6            1 RES     
    5663 H6         -68.3153   -18.9335    51.3366 H6            1 RES     
    5664 H6         -67.2201   -21.4723    52.7516 H6            1 RES     
    5665 H6         -68.5102   -20.3981    53.3863 H6            1 RES     
    5666 H6         -65.5143   -19.7174    52.8840 H6            1 RES     
    5667 H6         -66.2300   -20.1376    54.4780 H6            1 RES     
    5668 H6         -65.8885   -17.7036    54.2592 H6            1 RES     
    5669 H6         -67.6185   -18.1515    54.4445 H6            1 RES     
    5670 H6         -66.9804   -17.6405    52.8265 H6            1 RES     
    5671 H6         -70.0273   -24.0229    50.5581 H6            1 RES     
    5672 H6         -70.9641   -24.1291    49.0196 H6            1 RES     
    5673 H6         -69.4435   -23.0022    47.6884 H6            1 RES     
    5674 H6         -68.1976   -22.8434    48.8949 H6            1 RES     
    5675 H6         -67.8022   -24.3236    47.1534 H6            1 RES     
    5676 H6         -68.9992   -25.5227    47.6660 H6            1 RES     
    5677 H6         -67.5107   -26.1252    49.6003 H6            1 RES     
    5678 H6         -66.5939   -24.5794    49.4431 H6            1 RES     
    5679 H6         -65.7308   -25.1186    47.2544 H6            1 RES     
    5680 H6         -66.5762   -26.7108    47.2161 H6            1 RES     
    5681 H6         -65.0933   -27.5603    49.0006 H6            1 RES     
    5682 H6         -64.3366   -25.9297    49.2087 H6            1 RES     
    5683 H6         -63.5095   -25.9394    46.8715 H6            1 RES     
    5684 H6         -64.2791   -27.5399    46.5626 H6            1 RES     
    5685 H6         -62.7733   -28.6050    48.2311 H6            1 RES     
    5686 H6         -62.0075   -26.9972    48.5816 H6            1 RES     
    5687 H6         -61.8479   -27.7422    46.9496 H6            1 RES     
    5688 C0         -81.3266   -14.4980    45.9538 C0            1 RES     
    5689 C1         -82.3580   -15.3760    45.7689 C1            1 RES     
    5690 C1         -82.8875   -15.8311    46.9218 C1            1 RES     
    5691 C1         -82.2494   -15.3735    47.9533 C1            1 RES     
    5692 C1         -81.1358   -14.5094    47.5245 C1            1 RES     
    5693 C1         -80.0500   -15.4105    48.0933 C1            1 RES     
    5694 C1         -80.4328   -16.3399    49.0167 C1            1 RES     
    5695 S2         -82.1818   -16.1828    49.5134 S2            1 RES     
    5696 C1         -79.5137   -17.4382    49.5352 C1            1 RES     
    5697 C1         -78.1010   -17.3688    49.3531 C1            1 RES     
    5698 N3         -77.2722   -18.3598    49.7927 N3            1 RES     
    5699 C1         -77.7259   -19.4757    50.4061 C1            1 RES     
    5700 C1         -79.0935   -19.6252    50.5999 C1            1 RES     
    5701 C1         -79.9936   -18.6024    50.1718 C1            1 RES     
    5702 N3         -81.3092   -18.8702    50.4063 N3            1 RES     
    5703 S2         -81.2578   -20.3565    51.1362 S2            1 RES     
    5704 N3         -79.6466   -20.7170    51.1820 N3            1 RES     
    5705 S2         -84.0644   -17.0015    46.7064 S2            1 RES     
    5706 C1         -83.9222   -16.9348    45.0204 C1            1 RES     
    5707 C1         -82.9170   -16.0298    44.6581 C1            1 RES     
    5708 C0         -81.7922   -13.0995    45.3199 C0            1 RES     
    5709 C0         -83.0610   -12.3130    44.7146 C0            1 RES     
    5710 C0         -83.8634   -13.0508    43.5968 C0            1 RES     
    5711 C0         -85.3422   -13.2223    43.9927 C0            1 RES     
    5712 C0         -86.1557   -14.1035    43.0277 C0            1 RES     
    5713 C0         -87.6340   -14.1082    43.4612 C0            1 RES     
    5714 C0         -88.4848   -15.1171    42.6795 C0            1 RES     
    5715 C0         -89.9463   -15.0498    43.1285 C0            1 RES     
    5716 C0         -82.4578   -10.9508    44.1497 C0            1 RES     
    5717 C0         -83.2345    -9.8006    43.4353 C0            1 RES     
    5718 C0         -83.5115    -9.9566    41.9084 C0            1 RES     
    5719 C0         -83.5914    -8.5709    41.1968 C0            1 RES     
    5720 C0         -83.7596    -8.6690    39.6663 C0            1 RES     
    5721 C0         -83.3420    -7.3878    38.8986 C0            1 RES     
    5722 C0         -84.0946    -6.1064    39.2854 C0            1 RES     
    5723 C0         -83.6244    -4.9232    38.4283 C0            1 RES     
    5724 C0         -80.0322   -14.8420    45.0711 C0            1 RES     
    5725 C0         -78.7014   -13.9112    44.8498 C0            1 RES     
    5726 C0         -79.0224   -12.5173    44.1754 C0            1 RES     
    5727 C0         -77.8779   -11.6805    43.6127 C0            1 RES     
    5728 C0         -78.2992   -10.4225    42.8319 C0            1 RES     
    5729 C0         -78.8363    -9.2973    43.7405 C0            1 RES     
    5730 C0         -78.7596    -7.9166    43.0639 C0            1 RES     
    5731 C0         -79.6830    -7.7663    41.8673 C0            1 RES     
    5732 C0         -77.5948   -13.8155    45.9964 C0            1 RES     
    5733 C0         -76.1448   -13.6737    45.3955 C0            1 RES     
    5734 C0         -74.8430   -13.7237    46.2419 C0            1 RES     
    5735 C0         -74.2986   -12.4036    46.8796 C0            1 RES     
    5736 C0         -72.7394   -12.4661    46.8935 C0            1 RES     
    5737 C0         -71.9823   -11.2460    47.4612 C0            1 RES     
    5738 C0         -70.4722   -11.3935    47.1473 C0            1 RES     
    5739 C0         -69.6150   -10.2647    47.7180 C0            1 RES     
    5740 H4         -79.0598   -15.3792    47.7207 H4            1 RES     
    5741 H5         -77.6445   -16.5150    48.8796 H5            1 RES     
    5742 H4         -82.6094   -15.8939    43.6335 H4            1 RES     
    5743 H6         -81.3709   -12.3683    46.0426 H6            1 RES     
    5744 H6         -81.3150   -13.0910    44.3607 H6            1 RES     
    5745 H6         -83.7503   -12.0563    45.5488 H6            1 RES     
    5746 H6         -83.8192   -12.5150    42.6318 H6            1 RES     
    5747 H6         -83.3996   -13.9997    43.3536 H6            1 RES     
    5748 H6         -85.3955   -13.6986    44.9964 H6            1 RES     
    5749 H6         -85.7985   -12.2094    44.0507 H6            1 RES     
    5750 H6         -86.0830   -13.7276    41.9833 H6            1 RES     
    5751 H6         -85.7449   -15.1367    43.0646 H6            1 RES     
    5752 H6         -88.0469   -13.0841    43.3204 H6            1 RES     
    5753 H6         -87.7012   -14.3727    44.5391 H6            1 RES     
    5754 H6         -88.4328   -14.9102    41.5891 H6            1 RES     
    5755 H6         -88.0998   -16.1431    42.8692 H6            1 RES     
    5756 H6         -90.0292   -15.2447    44.2198 H6            1 RES     
    5757 H6         -90.3703   -14.0462    42.9096 H6            1 RES     
    5758 H6         -90.5459   -15.8125    42.5885 H6            1 RES     
    5759 H6         -82.0042   -10.4647    45.0413 H6            1 RES     
    5760 H6         -81.6205   -11.1820    43.4541 H6            1 RES     
    5761 H6         -84.1287    -9.4626    43.9968 H6            1 RES     
    5762 H6         -82.4991    -8.9667    43.4884 H6            1 RES     
    5763 H6         -82.6456   -10.4801    41.4437 H6            1 RES     
    5764 H6         -84.4276   -10.5550    41.7288 H6            1 RES     
    5765 H6         -84.3950    -7.9360    41.6259 H6            1 RES     
    5766 H6         -82.6322    -8.0602    41.3701 H6            1 RES     
    5767 H6         -83.0867    -9.4656    39.2799 H6            1 RES     
    5768 H6         -84.8049    -8.9570    39.4257 H6            1 RES     
    5769 H6         -83.4949    -7.5767    37.8128 H6            1 RES     
    5770 H6         -82.2542    -7.2147    39.0593 H6            1 RES     
    5771 H6         -83.8994    -5.8649    40.3517 H6            1 RES     
    5772 H6         -85.1853    -6.2458    39.1359 H6            1 RES     
    5773 H6         -83.8314    -5.1139    37.3530 H6            1 RES     
    5774 H6         -82.5335    -4.7513    38.5561 H6            1 RES     
    5775 H6         -84.1609    -3.9980    38.7285 H6            1 RES     
    5776 H6         -79.6732   -15.8426    45.3977 H6            1 RES     
    5777 H6         -80.3996   -15.0101    44.0328 H6            1 RES     
    5778 H6         -78.1933   -14.5094    44.0626 H6            1 RES     
    5779 H6         -79.5502   -11.8645    44.8961 H6            1 RES     
    5780 H6         -79.6367   -12.7333    43.2752 H6            1 RES     
    5781 H6         -77.2510   -11.3007    44.4386 H6            1 RES     
    5782 H6         -77.3055   -12.3303    42.9159 H6            1 RES     
    5783 H6         -77.3610   -10.0489    42.3697 H6            1 RES     
    5784 H6         -79.0104   -10.6648    42.0110 H6            1 RES     
    5785 H6         -78.1764    -9.2187    44.6303 H6            1 RES     
    5786 H6         -79.8630    -9.5234    44.0979 H6            1 RES     
    5787 H6         -77.7126    -7.7262    42.7424 H6            1 RES     
    5788 H6         -79.0348    -7.1381    43.8080 H6            1 RES     
    5789 H6         -79.5596    -6.7531    41.4279 H6            1 RES     
    5790 H6         -80.7170    -7.8723    42.2252 H6            1 RES     
    5791 H6         -79.4677    -8.5196    41.0822 H6            1 RES     
    5792 H6         -77.8529   -13.0396    46.7502 H6            1 RES     
    5793 H6         -77.5254   -14.7956    46.4955 H6            1 RES     
    5794 H6         -76.0623   -14.5519    44.7194 H6            1 RES     
    5795 H6         -75.9898   -12.8122    44.7547 H6            1 RES     
    5796 H6         -74.1002   -13.9647    45.4484 H6            1 RES     
    5797 H6         -74.8087   -14.5769    46.9507 H6            1 RES     
    5798 H6         -74.7320   -12.2467    47.8912 H6            1 RES     
    5799 H6         -74.5651   -11.5316    46.2433 H6            1 RES     
    5800 H6         -72.4214   -12.5615    45.8305 H6            1 RES     
    5801 H6         -72.4017   -13.3723    47.4408 H6            1 RES     
    5802 H6         -72.1460   -11.1837    48.5587 H6            1 RES     
    5803 H6         -72.3461   -10.3084    46.9874 H6            1 RES     
    5804 H6         -70.3319   -11.4026    46.0427 H6            1 RES     
    5805 H6         -70.0902   -12.3548    47.5540 H6            1 RES     
    5806 H6         -69.6679   -10.2599    48.8264 H6            1 RES     
    5807 H6         -69.9406    -9.2798    47.3233 H6            1 RES     
    5808 H6         -68.5539   -10.4251    47.4212 H6            1 RES     
    5809 C0         -86.4386   -22.9302    38.5004 C0            1 RES     
    5810 C1         -86.7223   -23.8843    39.4374 C1            1 RES     
    5811 C1         -87.6311   -23.4861    40.3496 C1            1 RES     
    5812 C1         -87.9863   -22.2535    40.1627 C1            1 RES     
    5813 C1         -87.2639   -21.6812    39.0131 C1            1 RES     
    5814 C1         -86.5215   -20.6391    39.8361 C1            1 RES     
    5815 C1         -87.0123   -20.3624    41.0793 C1            1 RES     
    5816 S2         -88.5969   -21.1973    41.4294 S2            1 RES     
    5817 C1         -86.2829   -19.4959    42.0976 C1            1 RES     
    5818 C1         -85.2097   -18.6410    41.7089 C1            1 RES     
    5819 N3         -84.5345   -17.8796    42.6182 N3            1 RES     
    5820 C1         -84.8161   -17.8961    43.9402 C1            1 RES     
    5821 C1         -85.8354   -18.7216    44.3983 C1            1 RES     
    5822 C1         -86.5792   -19.5200    43.4769 C1            1 RES     
    5823 N3         -87.5435   -20.2954    44.0482 N3            1 RES     
    5824 S2         -87.4069   -19.9263    45.6575 S2            1 RES     
    5825 N3         -86.1762   -18.8260    45.7059 N3            1 RES     
    5826 S2         -87.8900   -24.5992    41.5724 S2            1 RES     
    5827 C1         -86.7817   -25.6932    40.9075 C1            1 RES     
    5828 C1         -86.1909   -25.1435    39.7632 C1            1 RES     
    5829 C0         -86.8911   -23.5280    37.0818 C0            1 RES     
    5830 C0         -87.6967   -24.7369    36.3860 C0            1 RES     
    5831 C0         -87.3002   -26.1796    36.8320 C0            1 RES     
    5832 C0         -88.5129   -26.9407    37.4001 C0            1 RES     
    5833 C0         -88.1649   -28.3003    38.0326 C0            1 RES     
    5834 C0         -89.4620   -29.0134    38.4599 C0            1 RES     
    5835 C0         -89.2053   -30.2842    39.2796 C0            1 RES     
    5836 C0         -90.5267   -30.9656    39.6428 C0            1 RES     
    5837 C0         -87.4313   -24.5517    34.8258 C0            1 RES     
    5838 C0         -87.9602   -25.4530    33.6662 C0            1 RES     
    5839 C0         -87.1604   -26.7511    33.3387 C0            1 RES     
    5840 C0         -87.2909   -27.1394    31.8338 C0            1 RES     
    5841 C0         -86.4341   -28.3578    31.4315 C0            1 RES     
    5842 C0         -86.1441   -28.4555    29.9110 C0            1 RES     
    5843 C0         -87.3797   -28.5393    29.0030 C0            1 RES     
    5844 C0         -86.9621   -28.6766    27.5325 C0            1 RES     
    5845 C0         -84.8662   -22.7077    38.2747 C0            1 RES     
    5846 C0         -84.1438   -21.8294    37.0944 C0            1 RES     
    5847 C0         -84.4687   -22.3566    35.6393 C0            1 RES     
    5848 C0         -83.6327   -21.8619    34.4633 C0            1 RES     
    5849 C0         -83.9123   -22.5513    33.1157 C0            1 RES     
    5850 C0         -85.2595   -22.1342    32.4901 C0            1 RES     
    5851 C0         -85.3003   -22.3901    30.9726 C0            1 RES     
    5852 C0         -85.2675   -23.8612    30.5960 C0            1 RES     
    5853 C0         -84.1087   -20.2364    37.1931 C0            1 RES     
    5854 C0         -82.7794   -19.6449    36.5875 C0            1 RES     
    5855 C0         -82.3701   -18.1491    36.6815 C0            1 RES     
    5856 C0         -82.8674   -17.1536    35.5826 C0            1 RES     
    5857 C0         -81.7633   -16.0744    35.3554 C0            1 RES     
    5858 C0         -82.0321   -14.9943    34.2852 C0            1 RES     
    5859 C0         -80.7301   -14.1931    34.0331 C0            1 RES     
    5860 C0         -80.8971   -13.0531    33.0296 C0            1 RES     
    5861 H4         -85.6128   -20.2164    39.4957 H4            1 RES     
    5862 H5         -84.9153   -18.5559    40.6756 H5            1 RES     
    5863 H4         -85.3980   -25.6436    39.2301 H4            1 RES     
    5864 H6         -87.3094   -22.6307    36.5775 H6            1 RES     
    5865 H6         -85.9728   -23.8803    36.6570 H6            1 RES     
    5866 H6         -88.7844   -24.5868    36.5631 H6            1 RES     
    5867 H6         -86.8754   -26.7692    35.9999 H6            1 RES     
    5868 H6         -86.4771   -26.1514    37.5365 H6            1 RES     
    5869 H6         -88.9898   -26.3224    38.1923 H6            1 RES     
    5870 H6         -89.2409   -27.0877    36.5719 H6            1 RES     
    5871 H6         -87.6126   -28.9467    37.3153 H6            1 RES     
    5872 H6         -87.5196   -28.1198    38.9205 H6            1 RES     
    5873 H6         -90.0419   -29.2705    37.5452 H6            1 RES     
    5874 H6         -90.0722   -28.3254    39.0849 H6            1 RES     
    5875 H6         -88.5770   -30.9989    38.7062 H6            1 RES     
    5876 H6         -88.6742   -30.0118    40.2181 H6            1 RES     
    5877 H6         -91.1816   -30.2702    40.2113 H6            1 RES     
    5878 H6         -91.0589   -31.2887    38.7223 H6            1 RES     
    5879 H6         -90.3334   -31.8599    40.2718 H6            1 RES     
    5880 H6         -87.8401   -23.5426    34.5991 H6            1 RES     
    5881 H6         -86.3345   -24.4976    34.6452 H6            1 RES     
    5882 H6         -89.0538   -25.6284    33.7132 H6            1 RES     
    5883 H6         -87.7864   -24.8026    32.7797 H6            1 RES     
    5884 H6         -86.0773   -26.5495    33.5010 H6            1 RES     
    5885 H6         -87.4697   -27.5869    33.9987 H6            1 RES     
    5886 H6         -88.3496   -27.3094    31.5451 H6            1 RES     
    5887 H6         -86.9152   -26.2894    31.2444 H6            1 RES     
    5888 H6         -85.4333   -28.2679    31.9079 H6            1 RES     
    5889 H6         -86.9109   -29.2873    31.8085 H6            1 RES     
    5890 H6         -85.5158   -29.3579    29.7418 H6            1 RES     
    5891 H6         -85.5464   -27.5679    29.6045 H6            1 RES     
    5892 H6         -87.9859   -27.6149    29.1093 H6            1 RES     
    5893 H6         -87.9988   -29.4167    29.2829 H6            1 RES     
    5894 H6         -86.3772   -29.6092    27.3785 H6            1 RES     
    5895 H6         -86.3415   -27.8104    27.2152 H6            1 RES     
    5896 H6         -87.8621   -28.7175    26.8828 H6            1 RES     
    5897 H6         -84.4466   -22.3525    39.2414 H6            1 RES     
    5898 H6         -84.4245   -23.7219    38.1423 H6            1 RES     
    5899 H6         -83.0857   -22.1139    37.2814 H6            1 RES     
    5900 H6         -85.5201   -22.1262    35.3828 H6            1 RES     
    5901 H6         -84.2666   -23.4492    35.6443 H6            1 RES     
    5902 H6         -83.8409   -20.7931    34.2798 H6            1 RES     
    5903 H6         -82.5659   -22.0441    34.7170 H6            1 RES     
    5904 H6         -83.1111   -22.1855    32.4391 H6            1 RES     
    5905 H6         -83.8168   -23.6575    33.1900 H6            1 RES     
    5906 H6         -85.3727   -21.0349    32.5997 H6            1 RES     
    5907 H6         -86.1126   -22.6173    33.0114 H6            1 RES     
    5908 H6         -84.4418   -21.8718    30.4927 H6            1 RES     
    5909 H6         -86.2357   -21.9527    30.5614 H6            1 RES     
    5910 H6         -85.2855   -23.9619    29.4895 H6            1 RES     
    5911 H6         -86.1703   -24.3339    31.0083 H6            1 RES     
    5912 H6         -84.3580   -24.3660    30.9812 H6            1 RES     
    5913 H6         -85.0372   -19.7807    36.7844 H6            1 RES     
    5914 H6         -84.0047   -19.9559    38.2538 H6            1 RES     
    5915 H6         -81.9835   -20.1794    37.1496 H6            1 RES     
    5916 H6         -82.5960   -19.8862    35.5458 H6            1 RES     
    5917 H6         -81.2758   -18.2313    36.4938 H6            1 RES     
    5918 H6         -82.4660   -17.7276    37.7034 H6            1 RES     
    5919 H6         -83.8482   -16.7129    35.8649 H6            1 RES     
    5920 H6         -82.9851   -17.6815    34.6112 H6            1 RES     
    5921 H6         -80.8543   -16.6237    35.0203 H6            1 RES     
    5922 H6         -81.5286   -15.5649    36.3146 H6            1 RES     
    5923 H6         -82.8422   -14.3180    34.6339 H6            1 RES     
    5924 H6         -82.3417   -15.4654    33.3271 H6            1 RES     
    5925 H6         -79.9516   -14.8839    33.6373 H6            1 RES     
    5926 H6         -80.3580   -13.7600    34.9868 H6            1 RES     
    5927 H6         -81.6153   -12.2997    33.4144 H6            1 RES     
    5928 H6         -81.2459   -13.4356    32.0478 H6            1 RES     
    5929 H6         -79.9145   -12.5515    32.8786 H6            1 RES     
    5930 C0         -82.3329   -32.8259    44.6652 C0            1 RES     
    5931 C1         -82.7536   -32.4742    45.9174 C1            1 RES     
    5932 C1         -84.0947   -32.4025    46.0318 C1            1 RES     
    5933 C1         -84.6828   -32.6265    44.8985 C1            1 RES     
    5934 C1         -83.6843   -32.8743    43.8437 C1            1 RES     
    5935 C1         -84.0543   -31.6449    43.0276 C1            1 RES     
    5936 C1         -85.2613   -31.0639    43.2895 C1            1 RES     
    5937 S2         -86.2754   -32.0138    44.4727 S2            1 RES     
    5938 C1         -85.6953   -29.7263    42.7045 C1            1 RES     
    5939 C1         -85.0224   -29.1546    41.5847 C1            1 RES     
    5940 N3         -85.3887   -27.9453    41.0692 N3            1 RES     
    5941 C1         -86.3898   -27.2004    41.5892 C1            1 RES     
    5942 C1         -87.0784   -27.6818    42.6956 C1            1 RES     
    5943 C1         -86.7390   -28.9518    43.2538 C1            1 RES     
    5944 N3         -87.4771   -29.3082    44.3427 N3            1 RES     
    5945 S2         -88.5042   -28.0217    44.5282 S2            1 RES     
    5946 N3         -88.0796   -26.9991    43.3027 N3            1 RES     
    5947 S2         -84.6146   -31.8500    47.5236 S2            1 RES     
    5948 C1         -83.0292   -31.6950    48.0978 C1            1 RES     
    5949 C1         -82.1177   -32.0329    47.0900 C1            1 RES     
    5950 C0         -81.5590   -34.2236    44.8143 C0            1 RES     
    5951 C0         -81.2497   -35.4271    45.8392 C0            1 RES     
    5952 C0         -80.7140   -35.0164    47.2470 C0            1 RES     
    5953 C0         -81.6290   -35.5449    48.3679 C0            1 RES     
    5954 C0         -81.2722   -35.0245    49.7719 C0            1 RES     
    5955 C0         -82.1776   -35.7056    50.8160 C0            1 RES     
    5956 C0         -82.0321   -35.1038    52.2193 C0            1 RES     
    5957 C0         -82.9268   -35.8433    53.2167 C0            1 RES     
    5958 C0         -80.1762   -36.3315    45.0854 C0            1 RES     
    5959 C0         -79.5027   -37.6356    45.6168 C0            1 RES     
    5960 C0         -78.2643   -37.4790    46.5518 C0            1 RES     
    5961 C0         -77.2899   -38.6895    46.4185 C0            1 RES     
    5962 C0         -75.9953   -38.5368    47.2438 C0            1 RES     
    5963 C0         -74.8246   -39.4315    46.7595 C0            1 RES     
    5964 C0         -75.1006   -40.9421    46.7554 C0            1 RES     
    5965 C0         -73.8567   -41.7180    46.3009 C0            1 RES     
    5966 C0         -81.1777   -31.8725    44.0910 C0            1 RES     
    5967 C0         -80.2733   -32.1039    42.7438 C0            1 RES     
    5968 C0         -79.4140   -33.4307    42.7917 C0            1 RES     
    5969 C0         -78.2914   -33.6285    41.7782 C0            1 RES     
    5970 C0         -77.4065   -34.8677    42.0038 C0            1 RES     
    5971 C0         -78.1182   -36.1916    41.6558 C0            1 RES     
    5972 C0         -77.1222   -37.3325    41.3796 C0            1 RES     
    5973 C0         -76.3261   -37.7623    42.5996 C0            1 RES     
    5974 C0         -80.8968   -31.8097    41.3039 C0            1 RES     
    5975 C0         -79.8147   -31.2486    40.3048 C0            1 RES     
    5976 C0         -80.1379   -30.7115    38.8833 C0            1 RES     
    5977 C0         -80.1789   -31.7127    37.6825 C0            1 RES     
    5978 C0         -79.6660   -30.9767    36.4057 C0            1 RES     
    5979 C0         -79.5962   -31.7891    35.0945 C0            1 RES     
    5980 C0         -78.8273   -30.9687    34.0284 C0            1 RES     
    5981 C0         -78.7492   -31.6559    32.6659 C0            1 RES     
    5982 H4         -83.3665   -31.2065    42.3530 H4            1 RES     
    5983 H5         -84.2147   -29.6764    41.0978 H5            1 RES     
    5984 H4         -81.0524   -31.9274    47.2208 H4            1 RES     
    5985 H6         -81.8731   -34.7591    43.8929 H6            1 RES     
    5986 H6         -80.5271   -33.9359    44.8229 H6            1 RES     
    5987 H6         -82.1737   -36.0335    45.9637 H6            1 RES     
    5988 H6         -79.6897   -35.3893    47.4264 H6            1 RES     
    5989 H6         -80.5812   -33.9425    47.3093 H6            1 RES     
    5990 H6         -82.6758   -35.2328    48.1581 H6            1 RES     
    5991 H6         -81.5759   -36.6560    48.3550 H6            1 RES     
    5992 H6         -80.2083   -35.2347    50.0192 H6            1 RES     
    5993 H6         -81.4321   -33.9237    49.7897 H6            1 RES     
    5994 H6         -81.9272   -36.7897    50.8474 H6            1 RES     
    5995 H6         -83.2408   -35.5958    50.5096 H6            1 RES     
    5996 H6         -80.9780   -35.1676    52.5645 H6            1 RES     
    5997 H6         -82.3367   -34.0345    52.1910 H6            1 RES     
    5998 H6         -83.9893   -35.8038    52.8925 H6            1 RES     
    5999 H6         -82.6153   -36.9070    53.2980 H6            1 RES     
    6000 H6         -82.8475   -35.3740    54.2198 H6            1 RES     
    6001 H6         -80.6950   -36.6489    44.1542 H6            1 RES     
    6002 H6         -79.3190   -35.6957    44.7700 H6            1 RES     
    6003 H6         -80.2310   -38.3796    45.9976 H6            1 RES     
    6004 H6         -79.0776   -38.0653    44.6820 H6            1 RES     
    6005 H6         -77.6813   -36.5900    46.2204 H6            1 RES     
    6006 H6         -78.5768   -37.3275    47.6049 H6            1 RES     
    6007 H6         -77.7901   -39.6477    46.6730 H6            1 RES     
    6008 H6         -76.9795   -38.7431    45.3641 H6            1 RES     
    6009 H6         -75.6211   -37.4950    47.1382 H6            1 RES     
    6010 H6         -76.2168   -38.7142    48.3176 H6            1 RES     
    6011 H6         -73.9491   -39.2311    47.4160 H6            1 RES     
    6012 H6         -74.5464   -39.1256    45.7260 H6            1 RES     
    6013 H6         -75.9302   -41.1693    46.0530 H6            1 RES     
    6014 H6         -75.3812   -41.2804    47.7744 H6            1 RES     
    6015 H6         -73.0097   -41.5405    46.9986 H6            1 RES     
    6016 H6         -73.5480   -41.4066    45.2793 H6            1 RES     
    6017 H6         -74.0723   -42.8075    46.2834 H6            1 RES     
    6018 H6         -81.6080   -30.8497    44.0167 H6            1 RES     
    6019 H6         -80.4140   -31.7888    44.8977 H6            1 RES     
    6020 H6         -79.5437   -31.2754    42.8733 H6            1 RES     
    6021 H6         -80.0765   -34.3107    42.6870 H6            1 RES     
    6022 H6         -78.8730   -33.4244    43.7621 H6            1 RES     
    6023 H6         -78.7185   -33.7691    40.7697 H6            1 RES     
    6024 H6         -77.6343   -32.7338    41.8346 H6            1 RES     
    6025 H6         -76.5669   -34.7503    41.2864 H6            1 RES     
    6026 H6         -76.9775   -34.8875    43.0304 H6            1 RES     
    6027 H6         -78.6699   -36.0540    40.7018 H6            1 RES     
    6028 H6         -78.8558   -36.4702    42.4377 H6            1 RES     
    6029 H6         -76.4193   -37.0163    40.5785 H6            1 RES     
    6030 H6         -77.6852   -38.2167    41.0098 H6            1 RES     
    6031 H6         -75.6232   -38.5754    42.3170 H6            1 RES     
    6032 H6         -77.0353   -38.1517    43.3438 H6            1 RES     
    6033 H6         -75.7405   -36.9230    43.0274 H6            1 RES     
    6034 H6         -81.4631   -32.6850    40.9167 H6            1 RES     
    6035 H6         -81.5776   -30.9474    41.3892 H6            1 RES     
    6036 H6         -79.4060   -30.3655    40.8417 H6            1 RES     
    6037 H6         -78.9590   -31.8939    40.1364 H6            1 RES     
    6038 H6         -79.2278   -30.0995    38.6914 H6            1 RES     
    6039 H6         -80.9867   -29.9972    38.8627 H6            1 RES     
    6040 H6         -81.1998   -32.1340    37.5555 H6            1 RES     
    6041 H6         -79.4710   -32.5520    37.8581 H6            1 RES     
    6042 H6         -78.6229   -30.6562    36.6281 H6            1 RES     
    6043 H6         -80.2779   -30.0676    36.2212 H6            1 RES     
    6044 H6         -80.6254   -32.0156    34.7415 H6            1 RES     
    6045 H6         -79.0514   -32.7443    35.2580 H6            1 RES     
    6046 H6         -77.7859   -30.7994    34.3846 H6            1 RES     
    6047 H6         -79.3115   -29.9784    33.8868 H6            1 RES     
    6048 H6         -79.7647   -31.7836    32.2372 H6            1 RES     
    6049 H6         -78.2500   -32.6439    32.7470 H6            1 RES     
    6050 H6         -78.1550   -31.0218    31.9698 H6            1 RES     
    6051 C0         -79.5937   -26.8397    55.1271 C0            1 RES     
    6052 C1         -80.7849   -26.1945    55.3099 C1            1 RES     
    6053 C1         -81.8186   -27.0305    55.5322 C1            1 RES     
    6054 C1         -81.4523   -28.2719    55.4598 C1            1 RES     
    6055 C1         -80.0167   -28.3644    55.1415 C1            1 RES     
    6056 C1         -80.2283   -29.0470    53.7986 C1            1 RES     
    6057 C1         -81.4465   -29.6215    53.5774 C1            1 RES     
    6058 S2         -82.5301   -29.5985    55.0456 S2            1 RES     
    6059 C1         -81.8844   -30.1703    52.2257 C1            1 RES     
    6060 C1         -80.9386   -30.4313    51.1908 C1            1 RES     
    6061 N3         -81.3245   -30.8998    49.9686 N3            1 RES     
    6062 C1         -82.6175   -31.1277    49.6465 C1            1 RES     
    6063 C1         -83.5994   -30.8758    50.5965 C1            1 RES     
    6064 C1         -83.2360   -30.4030    51.8943 C1            1 RES     
    6065 N3         -84.2878   -30.1821    52.7324 N3            1 RES     
    6066 S2         -85.5937   -30.5983    51.8017 S2            1 RES     
    6067 N3         -84.9228   -31.0496    50.3616 N3            1 RES     
    6068 S2         -83.3001   -26.2581    55.6305 S2            1 RES     
    6069 C1         -82.6013   -24.7346    55.3898 C1            1 RES     
    6070 C1         -81.2221   -24.8650    55.1867 C1            1 RES     
    6071 C0         -78.6289   -26.3742    56.3217 C0            1 RES     
    6072 C0         -78.5973   -25.5814    57.7235 C0            1 RES     
    6073 C0         -79.2373   -24.1574    57.7276 C0            1 RES     
    6074 C0         -80.3689   -24.0576    58.7681 C0            1 RES     
    6075 C0         -81.1721   -22.7460    58.7031 C0            1 RES     
    6076 C0         -82.1936   -22.7133    59.8559 C0            1 RES     
    6077 C0         -83.1739   -21.5380    59.7550 C0            1 RES     
    6078 C0         -84.1379   -21.5385    60.9437 C0            1 RES     
    6079 C0         -77.0515   -25.4900    58.0991 C0            1 RES     
    6080 C0         -76.4257   -24.8098    59.3570 C0            1 RES     
    6081 C0         -76.1912   -23.2689    59.3027 C0            1 RES     
    6082 C0         -74.9822   -22.8424    60.1910 C0            1 RES     
    6083 C0         -74.6398   -21.3413    60.0924 C0            1 RES     
    6084 C0         -73.1950   -20.9896    60.5332 C0            1 RES     
    6085 C0         -72.8283   -21.3724    61.9744 C0            1 RES     
    6086 C0         -71.3945   -20.9340    62.3024 C0            1 RES     
    6087 C0         -78.7860   -26.3312    53.8378 C0            1 RES     
    6088 C0         -77.2429   -26.6949    53.4218 C0            1 RES     
    6089 C0         -76.1826   -26.2334    54.5006 C0            1 RES     
    6090 C0         -74.7040   -26.2044    54.1274 C0            1 RES     
    6091 C0         -73.7669   -25.5878    55.1816 C0            1 RES     
    6092 C0         -73.5628   -26.4931    56.4140 C0            1 RES     
    6093 C0         -72.2768   -26.1447    57.1852 C0            1 RES     
    6094 C0         -72.3098   -24.7799    57.8509 C0            1 RES     
    6095 C0         -76.9044   -28.1140    52.7738 C0            1 RES     
    6096 C0         -75.7428   -28.0076    51.7140 C0            1 RES     
    6097 C0         -75.2953   -29.1759    50.7928 C0            1 RES     
    6098 C0         -74.2188   -30.1847    51.3116 C0            1 RES     
    6099 C0         -73.3492   -30.6474    50.1013 C0            1 RES     
    6100 C0         -72.1971   -31.6348    50.3877 C0            1 RES     
    6101 C0         -71.3088   -31.7600    49.1244 C0            1 RES     
    6102 C0         -70.1657   -32.7624    49.2765 C0            1 RES     
    6103 H4         -79.4958   -28.9974    53.0361 H4            1 RES     
    6104 H5         -79.8833   -30.2854    51.3548 H5            1 RES     
    6105 H4         -80.5968   -24.0227    54.9364 H4            1 RES     
    6106 H6         -78.0861   -27.3143    56.5579 H6            1 RES     
    6107 H6         -78.0192   -25.6191    55.8679 H6            1 RES     
    6108 H6         -79.0956   -26.2070    58.4964 H6            1 RES     
    6109 H6         -78.4940   -23.3688    57.9422 H6            1 RES     
    6110 H6         -79.5786   -23.8867    56.7352 H6            1 RES     
    6111 H6         -81.0869   -24.8909    58.6033 H6            1 RES     
    6112 H6         -79.9141   -24.1693    59.7772 H6            1 RES     
    6113 H6         -80.5026   -21.8613    58.7837 H6            1 RES     
    6114 H6         -81.7006   -22.7059    57.7250 H6            1 RES     
    6115 H6         -81.6381   -22.6539    60.8187 H6            1 RES     
    6116 H6         -82.7892   -23.6522    59.8474 H6            1 RES     
    6117 H6         -82.6254   -20.5720    59.7361 H6            1 RES     
    6118 H6         -83.7637   -21.6346    58.8170 H6            1 RES     
    6119 H6         -84.6962   -22.4985    60.9937 H6            1 RES     
    6120 H6         -83.5778   -21.3987    61.8934 H6            1 RES     
    6121 H6         -84.8704   -20.7106    60.8400 H6            1 RES     
    6122 H6         -76.7263   -26.5513    58.1690 H6            1 RES     
    6123 H6         -76.4936   -25.0428    57.2463 H6            1 RES     
    6124 H6         -76.8938   -25.1349    60.3079 H6            1 RES     
    6125 H6         -75.3972   -25.2357    59.3538 H6            1 RES     
    6126 H6         -75.9085   -22.9907    58.2622 H6            1 RES     
    6127 H6         -77.1110   -22.7159    59.5817 H6            1 RES     
    6128 H6         -75.1344   -23.1268    61.2536 H6            1 RES     
    6129 H6         -74.0993   -23.3855    59.8219 H6            1 RES     
    6130 H6         -74.6978   -21.0274    59.0272 H6            1 RES     
    6131 H6         -75.3874   -20.7518    60.6645 H6            1 RES     
    6132 H6         -73.0595   -19.8921    60.4107 H6            1 RES     
    6133 H6         -72.4799   -21.4950    59.8460 H6            1 RES     
    6134 H6         -72.8937   -22.4741    62.0974 H6            1 RES     
    6135 H6         -73.5242   -20.8830    62.6870 H6            1 RES     
    6136 H6         -71.2957   -19.8299    62.2204 H6            1 RES     
    6137 H6         -70.6672   -21.4093    61.6086 H6            1 RES     
    6138 H6         -71.1326   -21.2320    63.3399 H6            1 RES     
    6139 H6         -79.4184   -26.5532    52.9503 H6            1 RES     
    6140 H6         -78.7777   -25.2187    53.8950 H6            1 RES     
    6141 H6         -77.1180   -25.9947    52.5675 H6            1 RES     
    6142 H6         -76.2569   -26.8758    55.3983 H6            1 RES     
    6143 H6         -76.4017   -25.1678    54.7265 H6            1 RES     
    6144 H6         -74.3324   -27.2353    53.9910 H6            1 RES     
    6145 H6         -74.6093   -25.5981    53.2005 H6            1 RES     
    6146 H6         -72.7838   -25.5039    54.6719 H6            1 RES     
    6147 H6         -74.0891   -24.5628    55.4715 H6            1 RES     
    6148 H6         -73.4143   -27.5364    56.0632 H6            1 RES     
    6149 H6         -74.4547   -26.4808    57.0753 H6            1 RES     
    6150 H6         -71.4111   -26.1900    56.4892 H6            1 RES     
    6151 H6         -72.1175   -26.9078    57.9776 H6            1 RES     
    6152 H6         -71.3456   -24.5975    58.3724 H6            1 RES     
    6153 H6         -73.1180   -24.7887    58.5960 H6            1 RES     
    6154 H6         -72.4723   -23.9655    57.1155 H6            1 RES     
    6155 H6         -76.7401   -28.8906    53.5527 H6            1 RES     
    6156 H6         -77.7505   -28.4155    52.1352 H6            1 RES     
    6157 H6         -76.1120   -27.2323    51.0085 H6            1 RES     
    6158 H6         -74.8038   -27.6174    52.0918 H6            1 RES     
    6159 H6         -74.7675   -28.6072    49.9944 H6            1 RES     
    6160 H6         -76.1393   -29.6874    50.2855 H6            1 RES     
    6161 H6         -74.6990   -31.0332    51.8457 H6            1 RES     
    6162 H6         -73.5223   -29.6759    52.0132 H6            1 RES     
    6163 H6         -72.8748   -29.7283    49.6884 H6            1 RES     
    6164 H6         -73.9989   -31.0876    49.3145 H6            1 RES     
    6165 H6         -72.6164   -32.6255    50.6668 H6            1 RES     
    6166 H6         -71.5644   -31.2617    51.2223 H6            1 RES     
    6167 H6         -70.8619   -30.7658    48.8969 H6            1 RES     
    6168 H6         -71.9256   -32.0712    48.2537 H6            1 RES     
    6169 H6         -70.5654   -33.7853    49.4360 H6            1 RES     
    6170 H6         -69.5023   -32.4837    50.1215 H6            1 RES     
    6171 H6         -69.5576   -32.7682    48.3438 H6            1 RES     
    6172 C0         -86.2997   -16.7473    52.6857 C0            1 RES     
    6173 C1         -87.4821   -17.3592    52.3754 C1            1 RES     
    6174 C1         -88.0324   -18.0197    53.4134 C1            1 RES     
    6175 C1         -87.2743   -17.9738    54.4640 C1            1 RES     
    6176 C1         -86.0419   -17.2203    54.1735 C1            1 RES     
    6177 C1         -85.1149   -18.4084    54.3819 C1            1 RES     
    6178 C1         -85.6187   -19.4794    55.0616 C1            1 RES     
    6179 S2         -87.2844   -19.1795    55.7443 S2            1 RES     
    6180 C1         -84.8939   -20.8132    55.1858 C1            1 RES     
    6181 C1         -83.5024   -20.9295    54.8962 C1            1 RES     
    6182 N3         -82.8501   -22.1251    54.9811 N3            1 RES     
    6183 C1         -83.4721   -23.2762    55.3209 C1            1 RES     
    6184 C1         -84.8335   -23.2465    55.5965 C1            1 RES     
    6185 C1         -85.5494   -22.0121    55.5377 C1            1 RES     
    6186 N3         -86.8796   -22.1141    55.8166 N3            1 RES     
    6187 S2         -87.0681   -23.7311    56.1239 S2            1 RES     
    6188 N3         -85.5502   -24.3498    55.9220 N3            1 RES     
    6189 S2         -89.4128   -18.8763    53.0109 S2            1 RES     
    6190 C1         -89.3387   -18.3741    51.3955 C1            1 RES     
    6191 C1         -88.2023   -17.5822    51.1898 C1            1 RES     
    6192 C0         -86.5295   -15.1718    52.4866 C0            1 RES     
    6193 C0         -87.6589   -14.0524    52.2304 C0            1 RES     
    6194 C0         -88.6338   -14.3131    51.0391 C0            1 RES     
    6195 C0         -90.0991   -14.3413    51.5135 C0            1 RES     
    6196 C0         -91.1042   -14.7781    50.4325 C0            1 RES     
    6197 C0         -92.5367   -14.6587    50.9867 C0            1 RES     
    6198 C0         -93.5932   -15.2605    50.0518 C0            1 RES     
    6199 C0         -94.9953   -15.0800    50.6382 C0            1 RES     
    6200 C0         -86.8427   -12.7057    51.9876 C0            1 RES     
    6201 C0         -87.4273   -11.2924    51.6754 C0            1 RES     
    6202 C0         -87.7984   -10.9759    50.1941 C0            1 RES     
    6203 C0         -87.6553    -9.4547    49.8807 C0            1 RES     
    6204 C0         -87.9091    -9.1003    48.4007 C0            1 RES     
    6205 C0         -87.2994    -7.7443    47.9593 C0            1 RES     
    6206 C0         -87.7854    -6.5126    48.7371 C0            1 RES     
    6207 C0         -87.1461    -5.2337    48.1792 C0            1 RES     
    6208 C0         -85.1326   -17.0438    51.6260 C0            1 RES     
    6209 C0         -83.6652   -16.3196    51.5319 C0            1 RES     
    6210 C0         -83.7557   -14.7611    51.2791 C0            1 RES     
    6211 C0         -82.5043   -14.0019    50.8500 C0            1 RES     
    6212 C0         -82.7231   -12.5266    50.4689 C0            1 RES     
    6213 C0         -83.0021   -11.6214    51.6867 C0            1 RES     
    6214 C0         -82.7047   -10.1402    51.3909 C0            1 RES     
    6215 C0         -83.6390    -9.5179    50.3677 C0            1 RES     
    6216 C0         -82.5082   -16.7251    52.5543 C0            1 RES     
    6217 C0         -81.0860   -16.6640    51.8778 C0            1 RES     
    6218 C0         -79.7779   -17.1573    52.5553 C0            1 RES     
    6219 C0         -78.9716   -16.1707    53.4621 C0            1 RES     
    6220 C0         -77.4514   -16.4898    53.3125 C0            1 RES     
    6221 C0         -76.4579   -15.6137    54.1059 C0            1 RES     
    6222 C0         -75.0166   -15.9154    53.6238 C0            1 RES     
    6223 C0         -73.9414   -15.1431    54.3867 C0            1 RES     
    6224 H4         -84.1540   -18.4391    53.9391 H4            1 RES     
    6225 H5         -82.9193   -20.0655    54.6219 H5            1 RES     
    6226 H4         -87.9225   -17.2230    50.2122 H4            1 RES     
    6227 H6         -85.9483   -14.7465    53.3326 H6            1 RES     
    6228 H6         -86.1037   -14.9791    51.5226 H6            1 RES     
    6229 H6         -88.2502   -13.9247    53.1638 H6            1 RES     
    6230 H6         -88.5367   -13.5480    50.2482 H6            1 RES     
    6231 H6         -88.3638   -15.2217    50.5135 H6            1 RES     
    6232 H6         -90.1925   -15.0592    52.3581 H6            1 RES     
    6233 H6         -90.3587   -13.3226    51.8773 H6            1 RES     
    6234 H6         -91.0120   -14.1474    49.5209 H6            1 RES     
    6235 H6         -90.8887   -15.8347    50.1589 H6            1 RES     
    6236 H6         -92.7606   -13.5819    51.1584 H6            1 RES     
    6237 H6         -92.6015   -15.1939    51.9592 H6            1 RES     
    6238 H6         -93.5546   -14.7740    49.0537 H6            1 RES     
    6239 H6         -93.3948   -16.3480    49.9293 H6            1 RES     
    6240 H6         -95.0621   -15.5503    51.6432 H6            1 RES     
    6241 H6         -95.2376   -13.9993    50.7305 H6            1 RES     
    6242 H6         -95.7489   -15.5560    49.9763 H6            1 RES     
    6243 H6         -86.2670   -12.5642    52.9286 H6            1 RES     
    6244 H6         -86.0951   -12.8715    51.1802 H6            1 RES     
    6245 H6         -88.2174   -10.9793    52.3873 H6            1 RES     
    6246 H6         -86.5497   -10.6375    51.8756 H6            1 RES     
    6247 H6         -87.0656   -11.4867    49.5292 H6            1 RES     
    6248 H6         -88.8161   -11.3433    49.9511 H6            1 RES     
    6249 H6         -88.3081    -8.8388    50.5346 H6            1 RES     
    6250 H6         -86.6118    -9.1758    50.0905 H6            1 RES     
    6251 H6         -87.4124    -9.8596    47.7577 H6            1 RES     
    6252 H6         -88.9996    -9.1355    48.1925 H6            1 RES     
    6253 H6         -87.5343    -7.6004    46.8813 H6            1 RES     
    6254 H6         -86.1920    -7.8030    48.0567 H6            1 RES     
    6255 H6         -87.5002    -6.6083    49.8061 H6            1 RES     
    6256 H6         -88.8889    -6.4246    48.6595 H6            1 RES     
    6257 H6         -87.4340    -5.0854    47.1158 H6            1 RES     
    6258 H6         -86.0374    -5.2849    48.2443 H6            1 RES     
    6259 H6         -87.4892    -4.3512    48.7601 H6            1 RES     
    6260 H6         -84.9486   -18.1404    51.6441 H6            1 RES     
    6261 H6         -85.5721   -16.8579    50.6193 H6            1 RES     
    6262 H6         -83.3124   -16.7539    50.5714 H6            1 RES     
    6263 H6         -84.1210   -14.2537    52.1919 H6            1 RES     
    6264 H6         -84.4402   -14.6181    50.4157 H6            1 RES     
    6265 H6         -81.7809   -13.9715    51.6838 H6            1 RES     
    6266 H6         -82.0936   -14.5205    49.9568 H6            1 RES     
    6267 H6         -81.7546   -12.1999    50.0345 H6            1 RES     
    6268 H6         -83.5039   -12.4142    49.6839 H6            1 RES     
    6269 H6         -82.2986   -11.8993    52.4999 H6            1 RES     
    6270 H6         -84.0352   -11.7651    52.0673 H6            1 RES     
    6271 H6         -81.6564   -10.0435    51.0335 H6            1 RES     
    6272 H6         -82.7977    -9.5615    52.3353 H6            1 RES     
    6273 H6         -83.3521    -8.4576    50.1992 H6            1 RES     
    6274 H6         -84.6572    -9.5467    50.7810 H6            1 RES     
    6275 H6         -83.6020   -10.0518    49.3961 H6            1 RES     
    6276 H6         -82.5844   -16.1543    53.5057 H6            1 RES     
    6277 H6         -82.5968   -17.8021    52.7706 H6            1 RES     
    6278 H6         -81.1974   -17.3243    50.9908 H6            1 RES     
    6279 H6         -80.8053   -15.6974    51.4732 H6            1 RES     
    6280 H6         -79.1293   -17.2900    51.6602 H6            1 RES     
    6281 H6         -79.8680   -18.1657    53.0096 H6            1 RES     
    6282 H6         -79.3217   -16.2283    54.5157 H6            1 RES     
    6283 H6         -79.1026   -15.1262    53.1042 H6            1 RES     
    6284 H6         -77.2058   -16.3409    52.2365 H6            1 RES     
    6285 H6         -77.2608   -17.5541    53.5693 H6            1 RES     
    6286 H6         -76.5566   -15.8288    55.1918 H6            1 RES     
    6287 H6         -76.6649   -14.5356    53.9304 H6            1 RES     
    6288 H6         -74.9315   -15.6441    52.5472 H6            1 RES     
    6289 H6         -74.7992   -17.0005    53.7269 H6            1 RES     
    6290 H6         -73.9413   -15.4338    55.4577 H6            1 RES     
    6291 H6         -74.0986   -14.0482    54.2960 H6            1 RES     
    6292 H6         -72.9426   -15.3879    53.9598 H6            1 RES     
    6293 C0         -93.2108   -21.8535    43.8003 C0            1 RES     
    6294 C1         -93.6212   -22.9680    44.4772 C1            1 RES     
    6295 C1         -94.3985   -22.6917    45.5432 C1            1 RES     
    6296 C1         -94.5296   -21.4141    45.7196 C1            1 RES     
    6297 C1         -93.7683   -20.6752    44.6973 C1            1 RES     
    6298 C1         -92.8101   -20.0354    45.6907 C1            1 RES     
    6299 C1         -93.1839   -20.0336    47.0034 C1            1 RES     
    6300 S2         -94.8769   -20.6605    47.2703 S2            1 RES     
    6301 C1         -92.2616   -19.6116    48.1397 C1            1 RES     
    6302 C1         -91.0689   -18.8711    47.8892 C1            1 RES     
    6303 N3         -90.2242   -18.5100    48.8984 N3            1 RES     
    6304 C1         -90.4428   -18.8419    50.1904 C1            1 RES     
    6305 C1         -91.5740   -19.5823    50.5102 C1            1 RES     
    6306 C1         -92.4933   -19.9640    49.4862 C1            1 RES     
    6307 N3         -93.5562   -20.6971    49.9227 N3            1 RES     
    6308 S2         -93.2801   -20.8112    51.5523 S2            1 RES     
    6309 N3         -91.8674   -19.9839    51.7710 N3            1 RES     
    6310 S2         -94.8005   -24.0392    46.4508 S2            1 RES     
    6311 C1         -93.9436   -25.0754    45.4215 C1            1 RES     
    6312 C1         -93.3155   -24.3377    44.4107 C1            1 RES     
    6313 C0         -93.8302   -21.9566    42.3237 C0            1 RES     
    6314 C0         -94.8753   -22.7790    41.4147 C0            1 RES     
    6315 C0         -94.7301   -24.3334    41.4282 C0            1 RES     
    6316 C0         -96.0344   -25.0113    41.8888 C0            1 RES     
    6317 C0         -95.9130   -26.5302    42.1078 C0            1 RES     
    6318 C0         -97.2978   -27.1101    42.4536 C0            1 RES     
    6319 C0         -97.2412   -28.5811    42.8842 C0            1 RES     
    6320 C0         -98.6469   -29.1094    43.1791 C0            1 RES     
    6321 C0         -94.6526   -22.2192    39.9397 C0            1 RES     
    6322 C0         -95.3910   -22.6683    38.6397 C0            1 RES     
    6323 C0         -94.8589   -23.9399    37.9101 C0            1 RES     
    6324 C0         -95.1278   -23.8736    36.3752 C0            1 RES     
    6325 C0         -94.5286   -25.0584    35.5893 C0            1 RES     
    6326 C0         -94.3320   -24.7816    34.0760 C0            1 RES     
    6327 C0         -95.6025   -24.4091    33.2981 C0            1 RES     
    6328 C0         -95.2855   -24.2045    31.8104 C0            1 RES     
    6329 C0         -91.6364   -21.8391    43.4938 C0            1 RES     
    6330 C0         -90.8203   -20.8017    42.5220 C0            1 RES     
    6331 C0         -91.3033   -20.8489    41.0168 C0            1 RES     
    6332 C0         -90.4458   -20.1949    39.9381 C0            1 RES     
    6333 C0         -90.9090   -20.4326    38.4896 C0            1 RES     
    6334 C0         -92.1842   -19.6446    38.1245 C0            1 RES     
    6335 C0         -92.3413   -19.4642    36.6037 C0            1 RES     
    6336 C0         -92.5964   -20.7602    35.8539 C0            1 RES     
    6337 C0         -90.4890   -19.3252    43.0305 C0            1 RES     
    6338 C0         -89.1030   -18.8169    42.4785 C0            1 RES     
    6339 C0         -88.4223   -17.4926    42.9217 C0            1 RES     
    6340 C0         -88.7786   -16.1662    42.1736 C0            1 RES     
    6341 C0         -87.5069   -15.2627    42.1339 C0            1 RES     
    6342 C0         -87.6220   -13.9015    41.4140 C0            1 RES     
    6343 C0         -86.2081   -13.2870    41.2591 C0            1 RES     
    6344 C0         -86.2092   -11.9042    40.6091 C0            1 RES     
    6345 H4         -91.8559   -19.6908    45.3889 H4            1 RES     
    6346 H5         -90.8119   -18.5554    46.8912 H5            1 RES     
    6347 H4         -92.6532   -24.7956    43.6932 H4            1 RES     
    6348 H6         -94.0996   -20.8994    42.1135 H6            1 RES     
    6349 H6         -93.0128   -22.3248    41.7371 H6            1 RES     
    6350 H6         -95.9076   -22.5068    41.7264 H6            1 RES     
    6351 H6         -94.4596   -24.7337    40.4348 H6            1 RES     
    6352 H6         -93.8842   -24.6350    42.0350 H6            1 RES     
    6353 H6         -96.3527   -24.5644    42.8564 H6            1 RES     
    6354 H6         -96.8144   -24.8039    41.1233 H6            1 RES     
    6355 H6         -95.5224   -27.0366    41.1977 H6            1 RES     
    6356 H6         -95.2052   -26.7086    42.9473 H6            1 RES     
    6357 H6         -97.9566   -27.0076    41.5622 H6            1 RES     
    6358 H6         -97.7419   -26.5294    43.2915 H6            1 RES     
    6359 H6         -96.7818   -29.2042    42.0873 H6            1 RES     
    6360 H6         -96.6264   -28.6676    43.8070 H6            1 RES     
    6361 H6         -99.1362   -28.4989    43.9687 H6            1 RES     
    6362 H6         -99.2713   -29.0757    42.2603 H6            1 RES     
    6363 H6         -98.5923   -30.1610    43.5310 H6            1 RES     
    6364 H6         -94.8793   -21.1337    40.0245 H6            1 RES     
    6365 H6         -93.5741   -22.2985    39.6771 H6            1 RES     
    6366 H6         -96.4948   -22.6679    38.7418 H6            1 RES     
    6367 H6         -95.1418   -21.8374    37.9420 H6            1 RES     
    6368 H6         -93.7510   -23.9712    38.0168 H6            1 RES     
    6369 H6         -95.2856   -24.8620    38.3543 H6            1 RES     
    6370 H6         -96.2119   -23.7817    36.1530 H6            1 RES     
    6371 H6         -94.6301   -22.9683    35.9962 H6            1 RES     
    6372 H6         -93.5074   -25.2683    35.9762 H6            1 RES     
    6373 H6         -95.1500   -25.9643    35.7530 H6            1 RES     
    6374 H6         -93.8885   -25.6935    33.6181 H6            1 RES     
    6375 H6         -93.5963   -23.9547    33.9576 H6            1 RES     
    6376 H6         -96.0232   -23.4629    33.6991 H6            1 RES     
    6377 H6         -96.3586   -25.2156    33.3955 H6            1 RES     
    6378 H6         -94.8895   -25.1420    31.3633 H6            1 RES     
    6379 H6         -94.5318   -23.3987    31.6739 H6            1 RES     
    6380 H6         -96.2067   -23.9172    31.2602 H6            1 RES     
    6381 H6         -91.1145   -21.8365    44.4758 H6            1 RES     
    6382 H6         -91.3949   -22.8362    43.0597 H6            1 RES     
    6383 H6         -89.8249   -21.2963    42.5277 H6            1 RES     
    6384 H6         -92.3052   -20.3876    40.9297 H6            1 RES     
    6385 H6         -91.3050   -21.9186    40.7167 H6            1 RES     
    6386 H6         -90.4625   -19.0977    40.0612 H6            1 RES     
    6387 H6         -89.4200   -20.6122    40.0338 H6            1 RES     
    6388 H6         -90.0864   -20.0319    37.8600 H6            1 RES     
    6389 H6         -91.0149   -21.5168    38.2624 H6            1 RES     
    6390 H6         -92.0886   -18.6144    38.5282 H6            1 RES     
    6391 H6         -93.0865   -20.1052    38.5790 H6            1 RES     
    6392 H6         -91.4253   -18.9824    36.1976 H6            1 RES     
    6393 H6         -93.1985   -18.7834    36.4112 H6            1 RES     
    6394 H6         -92.6837   -20.5492    34.7664 H6            1 RES     
    6395 H6         -93.5507   -21.1729    36.2111 H6            1 RES     
    6396 H6         -91.7782   -21.4935    36.0062 H6            1 RES     
    6397 H6         -91.3359   -18.6288    42.8445 H6            1 RES     
    6398 H6         -90.2863   -19.3673    44.1129 H6            1 RES     
    6399 H6         -88.3937   -19.6082    42.8037 H6            1 RES     
    6400 H6         -89.0153   -18.7899    41.3975 H6            1 RES     
    6401 H6         -87.3715   -17.6986    42.6170 H6            1 RES     
    6402 H6         -88.3920   -17.3577    44.0227 H6            1 RES     
    6403 H6         -89.6477   -15.6650    42.6523 H6            1 RES     
    6404 H6         -89.0359   -16.3807    41.1134 H6            1 RES     
    6405 H6         -86.7306   -15.8405    41.5828 H6            1 RES     
    6406 H6         -87.1387   -15.0815    43.1666 H6            1 RES     
    6407 H6         -88.2773   -13.2234    42.0021 H6            1 RES     
    6408 H6         -88.0566   -14.0344    40.3994 H6            1 RES     
    6409 H6         -85.5888   -13.9609    40.6248 H6            1 RES     
    6410 H6         -85.7193   -13.1993    42.2534 H6            1 RES     
    6411 H6         -86.7584   -11.1779    41.2435 H6            1 RES     
    6412 H6         -86.6672   -11.9401    39.5988 H6            1 RES     
    6413 H6         -85.1593   -11.5489    40.5030 H6            1 RES     
    6414 C0         -90.7108   -33.5950    46.7458 C0            1 RES     
    6415 C1         -91.0016   -33.5361    48.0802 C1            1 RES     
    6416 C1         -92.3000   -33.2793    48.3349 C1            1 RES     
    6417 C1         -92.9709   -33.0841    47.2430 C1            1 RES     
    6418 C1         -92.0847   -33.1936    46.0711 C1            1 RES     
    6419 C1         -92.2600   -31.7442    45.6438 C1            1 RES     
    6420 C1         -93.3265   -31.0673    46.1609 C1            1 RES     
    6421 S2         -94.4420   -32.1253    47.1442 S2            1 RES     
    6422 C1         -93.5341   -29.5682    45.9899 C1            1 RES     
    6423 C1         -92.8202   -28.8298    45.0006 C1            1 RES     
    6424 N3         -92.9817   -27.4825    44.8564 N3            1 RES     
    6425 C1         -93.8040   -26.7549    45.6450 C1            1 RES     
    6426 C1         -94.5175   -27.4014    46.6466 C1            1 RES     
    6427 C1         -94.3915   -28.8136    46.8184 C1            1 RES     
    6428 N3         -95.1314   -29.3287    47.8405 N3            1 RES     
    6429 S2         -95.8953   -27.9919    48.4520 S2            1 RES     
    6430 N3         -95.3472   -26.7566    47.5025 N3            1 RES     
    6431 S2         -92.6403   -33.0796    49.9615 S2            1 RES     
    6432 C1         -91.0286   -33.3505    50.4044 C1            1 RES     
    6433 C1         -90.2421   -33.5439    49.2622 C1            1 RES     
    6434 C0         -90.2006   -35.0873    46.4503 C0            1 RES     
    6435 C0         -90.0704   -36.5595    47.0908 C0            1 RES     
    6436 C0         -89.4041   -36.6444    48.5002 C0            1 RES     
    6437 C0         -90.3478   -37.3024    49.5245 C0            1 RES     
    6438 C0         -89.8372   -37.2530    50.9758 C0            1 RES     
    6439 C0         -90.8030   -38.0360    51.8856 C0            1 RES     
    6440 C0         -90.4849   -37.8745    53.3773 C0            1 RES     
    6441 C0         -91.4532   -38.7019    54.2260 C0            1 RES     
    6442 C0         -89.2170   -37.3860    46.0290 C0            1 RES     
    6443 C0         -88.7705   -38.8781    46.1348 C0            1 RES     
    6444 C0         -87.4826   -39.1894    46.9574 C0            1 RES     
    6445 C0         -86.7541   -40.4599    46.4209 C0            1 RES     
    6446 C0         -85.4168   -40.7541    47.1318 C0            1 RES     
    6447 C0         -84.4539   -41.6612    46.3223 C0            1 RES     
    6448 C0         -85.0022   -43.0462    45.9490 C0            1 RES     
    6449 C0         -83.9442   -43.8609    45.1924 C0            1 RES     
    6450 C0         -89.4281   -32.7238    46.3350 C0            1 RES     
    6451 C0         -88.6447   -32.7221    44.8953 C0            1 RES     
    6452 C0         -88.0421   -34.1335    44.5133 C0            1 RES     
    6453 C0         -87.0229   -34.2273    43.3825 C0            1 RES     
    6454 C0         -86.3710   -35.6087    43.1916 C0            1 RES     
    6455 C0         -87.3289   -36.6508    42.5778 C0            1 RES     
    6456 C0         -86.5730   -37.8196    41.9202 C0            1 RES     
    6457 C0         -85.8138   -38.6923    42.9047 C0            1 RES     
    6458 C0         -89.2693   -31.9461    43.6479 C0            1 RES     
    6459 C0         -88.1499   -31.3181    42.7333 C0            1 RES     
    6460 C0         -88.4342   -30.3663    41.5388 C0            1 RES     
    6461 C0         -88.7137   -30.9789    40.1273 C0            1 RES     
    6462 C0         -88.1339   -30.0155    39.0453 C0            1 RES     
    6463 C0         -88.2750   -30.4371    37.5666 C0            1 RES     
    6464 C0         -87.4186   -29.4937    36.6849 C0            1 RES     
    6465 C0         -87.5309   -29.7840    35.1889 C0            1 RES     
    6466 H4         -91.5353   -31.2567    45.0458 H4            1 RES     
    6467 H5         -92.1453   -29.3234    44.3204 H5            1 RES     
    6468 H4         -89.1707   -33.6548    49.3153 H4            1 RES     
    6469 H6         -90.6498   -35.2905    45.4547 H6            1 RES     
    6470 H6         -89.1341   -34.9865    46.4368 H6            1 RES     
    6471 H6         -91.0832   -37.0166    47.1386 H6            1 RES     
    6472 H6         -88.4584   -37.2152    48.4785 H6            1 RES     
    6473 H6         -89.0737   -35.6658    48.8285 H6            1 RES     
    6474 H6         -91.3281   -36.7772    49.5032 H6            1 RES     
    6475 H6         -90.5001   -38.3604    49.2163 H6            1 RES     
    6476 H6         -88.8196   -37.6947    51.0582 H6            1 RES     
    6477 H6         -89.7913   -36.1886    51.2960 H6            1 RES     
    6478 H6         -90.7547   -39.1130    51.6085 H6            1 RES     
    6479 H6         -91.8410   -37.6733    51.7200 H6            1 RES     
    6480 H6         -89.4456   -38.2028    53.5931 H6            1 RES     
    6481 H6         -90.5891   -36.8036    53.6586 H6            1 RES     
    6482 H6         -92.5042   -38.4010    54.0248 H6            1 RES     
    6483 H6         -91.3387   -39.7832    53.9965 H6            1 RES     
    6484 H6         -91.2429   -38.5453    55.3049 H6            1 RES     
    6485 H6         -89.8277   -37.3462    45.1003 H6            1 RES     
    6486 H6         -88.2732   -36.8379    45.8118 H6            1 RES     
    6487 H6         -89.6046   -39.5678    46.3744 H6            1 RES     
    6488 H6         -88.4751   -39.0986    45.0844 H6            1 RES     
    6489 H6         -86.7623   -38.3520    46.8169 H6            1 RES     
    6490 H6         -87.7131   -39.2834    48.0380 H6            1 RES     
    6491 H6         -87.4094   -41.3555    46.4616 H6            1 RES     
    6492 H6         -86.5078   -40.2725    45.3649 H6            1 RES     
    6493 H6         -84.8631   -39.7994    47.2679 H6            1 RES     
    6494 H6         -85.6174   -41.1803    48.1377 H6            1 RES     
    6495 H6         -83.5271   -41.7952    46.9231 H6            1 RES     
    6496 H6         -84.1722   -41.1336    45.3835 H6            1 RES     
    6497 H6         -85.8910   -42.9326    45.2929 H6            1 RES     
    6498 H6         -85.2929   -43.6002    46.8656 H6            1 RES     
    6499 H6         -83.0478   -44.0232    45.8293 H6            1 RES     
    6500 H6         -83.6310   -43.3365    44.2635 H6            1 RES     
    6501 H6         -84.3566   -44.8531    44.9107 H6            1 RES     
    6502 H6         -89.6663   -31.6637    46.5719 H6            1 RES     
    6503 H6         -88.6255   -32.9911    47.0600 H6            1 RES     
    6504 H6         -87.7702   -32.0924    45.1680 H6            1 RES     
    6505 H6         -88.8590   -34.8298    44.2448 H6            1 RES     
    6506 H6         -87.4649   -34.4825    45.3962 H6            1 RES     
    6507 H6         -87.5146   -34.0138    42.4171 H6            1 RES     
    6508 H6         -86.2108   -33.5030    43.6090 H6            1 RES     
    6509 H6         -85.5581   -35.4386    42.4543 H6            1 RES     
    6510 H6         -85.9060   -35.9794    44.1321 H6            1 RES     
    6511 H6         -87.8894   -36.1682    41.7493 H6            1 RES     
    6512 H6         -88.0682   -37.0081    43.3252 H6            1 RES     
    6513 H6         -85.8617   -37.4157    41.1673 H6            1 RES     
    6514 H6         -87.3051   -38.4636    41.3865 H6            1 RES     
    6515 H6         -85.2859   -39.5005    42.3543 H6            1 RES     
    6516 H6         -86.5474   -39.1488    43.5843 H6            1 RES     
    6517 H6         -85.0650   -38.1105    43.4801 H6            1 RES     
    6518 H6         -90.0039   -32.5763    43.1002 H6            1 RES     
    6519 H6         -89.7756   -31.0406    44.0196 H6            1 RES     
    6520 H6         -87.5617   -30.6957    43.4417 H6            1 RES     
    6521 H6         -87.4359   -32.0238    42.3222 H6            1 RES     
    6522 H6         -87.4372   -29.8832    41.4291 H6            1 RES     
    6523 H6         -89.1376   -29.5443    41.7859 H6            1 RES     
    6524 H6         -89.7993   -31.1756    39.9911 H6            1 RES     
    6525 H6         -88.1645   -31.9385    40.0097 H6            1 RES     
    6526 H6         -87.0405   -29.9441    39.2446 H6            1 RES     
    6527 H6         -88.5764   -29.0030    39.1635 H6            1 RES     
    6528 H6         -89.3434   -30.3859    37.2650 H6            1 RES     
    6529 H6         -87.9078   -31.4765    37.4224 H6            1 RES     
    6530 H6         -86.3485   -29.6019    36.9734 H6            1 RES     
    6531 H6         -87.7188   -28.4369    36.8537 H6            1 RES     
    6532 H6         -88.5713   -29.6206    34.8392 H6            1 RES     
    6533 H6         -87.2183   -30.8243    34.9613 H6            1 RES     
    6534 H6         -86.8632   -29.0898    34.6304 H6            1 RES     
    6535 C0         -86.4398   -31.2419    58.1040 C0            1 RES     
    6536 C1         -87.4827   -30.4851    58.5605 C1            1 RES     
    6537 C1         -88.6408   -31.1685    58.6524 C1            1 RES     
    6538 C1         -88.5123   -32.3850    58.2235 C1            1 RES     
    6539 C1         -87.1342   -32.6211    57.7586 C1            1 RES     
    6540 C1         -87.5293   -32.8648    56.3099 C1            1 RES     
    6541 C1         -88.8411   -33.1485    56.0616 C1            1 RES     
    6542 S2         -89.8332   -33.3515    57.5799 S2            1 RES     
    6543 C1         -89.4342   -33.2259    54.6608 C1            1 RES     
    6544 C1         -88.6011   -33.3446    53.5095 C1            1 RES     
    6545 N3         -89.1225   -33.3900    52.2492 N3            1 RES     
    6546 C1         -90.4488   -33.3053    52.0018 C1            1 RES     
    6547 C1         -91.3229   -33.1660    53.0726 C1            1 RES     
    6548 C1         -90.8194   -33.1335    54.4087 C1            1 RES     
    6549 N3         -91.7730   -32.9814    55.3705 N3            1 RES     
    6550 S2         -93.1746   -32.9061    54.4904 S2            1 RES     
    6551 N3         -92.6651   -33.0489    52.9259 N3            1 RES     
    6552 S2         -89.9493   -30.2203    59.0884 S2            1 RES     
    6553 C1         -88.9946   -28.8255    59.1901 C1            1 RES     
    6554 C1         -87.6736   -29.1198    58.8313 C1            1 RES     
    6555 C0         -85.3519   -31.2868    59.2825 C0            1 RES     
    6556 C0         -85.1106   -30.9253    60.8336 C0            1 RES     
    6557 C0         -85.4776   -29.4720    61.2704 C0            1 RES     
    6558 C0         -86.5223   -29.4770    62.4024 C0            1 RES     
    6559 C0         -87.0733   -28.0846    62.7588 C0            1 RES     
    6560 C0         -88.0172   -28.2020    63.9708 C0            1 RES     
    6561 C0         -88.7688   -26.8997    64.2736 C0            1 RES     
    6562 C0         -89.6606   -27.0679    65.5060 C0            1 RES     
    6563 C0         -83.5587   -31.1956    61.0728 C0            1 RES     
    6564 C0         -82.7613   -30.9988    62.4003 C0            1 RES     
    6565 C0         -82.2508   -29.5623    62.7294 C0            1 RES     
    6566 C0         -80.9444   -29.6003    63.5806 C0            1 RES     
    6567 C0         -80.3372   -28.2071    63.8466 C0            1 RES     
    6568 C0         -78.8336   -28.2321    64.2261 C0            1 RES     
    6569 C0         -78.4773   -29.0503    65.4758 C0            1 RES     
    6570 C0         -76.9738   -28.9603    65.7707 C0            1 RES     
    6571 C0         -85.6129   -30.5391    56.9227 C0            1 RES     
    6572 C0         -84.1836   -31.0230    56.2828 C0            1 RES     
    6573 C0         -83.0080   -31.0557    57.3401 C0            1 RES     
    6574 C0         -81.5679   -31.1686    56.8501 C0            1 RES     
    6575 C0         -80.4860   -31.0274    57.9359 C0            1 RES     
    6576 C0         -80.3949   -32.2568    58.8636 C0            1 RES     
    6577 C0         -79.0326   -32.3493    59.5746 C0            1 RES     
    6578 C0         -78.7838   -31.2332    60.5743 C0            1 RES     
    6579 C0         -84.1416   -32.2455    55.2571 C0            1 RES     
    6580 C0         -83.0303   -32.0448    54.1577 C0            1 RES     
    6581 C0         -82.8478   -32.9726    52.9250 C0            1 RES     
    6582 C0         -81.9520   -34.2476    53.0580 C0            1 RES     
    6583 C0         -81.2388   -34.4968    51.6925 C0            1 RES     
    6584 C0         -80.2755   -35.7001    51.6009 C0            1 RES     
    6585 C0         -79.4845   -35.6182    50.2711 C0            1 RES     
    6586 C0         -78.5390   -36.7974    50.0473 C0            1 RES     
    6587 H4         -86.8361   -32.7290    55.5216 H4            1 RES     
    6588 H5         -87.5306   -33.4246    53.6059 H5            1 RES     
    6589 H4         -86.9166   -28.3557    58.7525 H4            1 RES     
    6590 H6         -84.9805   -32.3316    59.2124 H6            1 RES     
    6591 H6         -84.6355   -30.5471    58.9870 H6            1 RES     
    6592 H6         -85.6791   -31.6483    61.4591 H6            1 RES     
    6593 H6         -84.5930   -28.9058    61.6130 H6            1 RES     
    6594 H6         -85.8088   -28.8873    60.4201 H6            1 RES     
    6595 H6         -87.3879   -30.1035    62.0935 H6            1 RES     
    6596 H6         -86.0497   -29.9343    63.2997 H6            1 RES     
    6597 H6         -86.2499   -27.3783    63.0048 H6            1 RES     
    6598 H6         -87.6301   -27.6915    61.8795 H6            1 RES     
    6599 H6         -87.4164   -28.5010    64.8589 H6            1 RES     
    6600 H6         -88.7747   -28.9915    63.7729 H6            1 RES     
    6601 H6         -88.0538   -26.0693    64.4567 H6            1 RES     
    6602 H6         -89.4089   -26.6372    63.4028 H6            1 RES     
    6603 H6         -90.3826   -27.8995    65.3553 H6            1 RES     
    6604 H6         -89.0412   -27.2878    66.4021 H6            1 RES     
    6605 H6         -90.2327   -26.1348    65.6920 H6            1 RES     
    6606 H6         -83.4309   -32.2737    60.8317 H6            1 RES     
    6607 H6         -82.9681   -30.6295    60.3183 H6            1 RES     
    6608 H6         -83.2367   -31.4908    63.2726 H6            1 RES     
    6609 H6         -81.8297   -31.5703    62.1891 H6            1 RES     
    6610 H6         -81.9702   -29.0598    61.7762 H6            1 RES     
    6611 H6         -83.0396   -28.9638    63.2287 H6            1 RES     
    6612 H6         -81.0970   -30.1362    64.5412 H6            1 RES     
    6613 H6         -80.1941   -30.1587    63.0008 H6            1 RES     
    6614 H6         -80.3857   -27.6081    62.9109 H6            1 RES     
    6615 H6         -80.9367   -27.6828    64.6207 H6            1 RES     
    6616 H6         -78.5048   -27.1808    64.3829 H6            1 RES     
    6617 H6         -78.2558   -28.6399    63.3665 H6            1 RES     
    6618 H6         -78.7380   -30.1172    65.3117 H6            1 RES     
    6619 H6         -79.0380   -28.6677    66.3537 H6            1 RES     
    6620 H6         -76.6779   -27.9078    65.9716 H6            1 RES     
    6621 H6         -76.3789   -29.3397    64.9115 H6            1 RES     
    6622 H6         -76.7234   -29.5702    66.6647 H6            1 RES     
    6623 H6         -86.3155   -30.4022    56.0716 H6            1 RES     
    6624 H6         -85.3979   -29.5020    57.2680 H6            1 RES     
    6625 H6         -83.9718   -30.1458    55.6337 H6            1 RES     
    6626 H6         -83.1574   -31.8984    58.0412 H6            1 RES     
    6627 H6         -83.0171   -30.0720    57.8565 H6            1 RES     
    6628 H6         -81.3985   -32.1690    56.4143 H6            1 RES     
    6629 H6         -81.4065   -30.3556    56.1096 H6            1 RES     
    6630 H6         -79.5288   -30.9695    57.3758 H6            1 RES     
    6631 H6         -80.6009   -30.0828    58.5129 H6            1 RES     
    6632 H6         -80.4567   -33.1734    58.2397 H6            1 RES     
    6633 H6         -81.2379   -32.2800    59.5859 H6            1 RES     
    6634 H6         -78.2230   -32.3435    58.8128 H6            1 RES     
    6635 H6         -78.9796   -33.3158    60.1211 H6            1 RES     
    6636 H6         -77.7795   -31.3618    61.0323 H6            1 RES     
    6637 H6         -79.5446   -31.3132    61.3637 H6            1 RES     
    6638 H6         -78.8278   -30.2332    60.0963 H6            1 RES     
    6639 H6         -84.0868   -33.2220    55.7865 H6            1 RES     
    6640 H6         -85.0572   -32.2171    54.6444 H6            1 RES     
    6641 H6         -83.2831   -31.0561    53.7176 H6            1 RES     
    6642 H6         -82.0192   -31.9328    54.5344 H6            1 RES     
    6643 H6         -82.2620   -32.3014    52.2572 H6            1 RES     
    6644 H6         -83.7938   -33.1796    52.3832 H6            1 RES     
    6645 H6         -82.5545   -35.1192    53.3942 H6            1 RES     
    6646 H6         -81.1423   -34.0722    53.7996 H6            1 RES     
    6647 H6         -80.6233   -33.5907    51.4919 H6            1 RES     
    6648 H6         -81.9939   -34.5915    50.8827 H6            1 RES     
    6649 H6         -80.8562   -36.6466    51.6491 H6            1 RES     
    6650 H6         -79.5473   -35.6794    52.4407 H6            1 RES     
    6651 H6         -78.8737   -34.6871    50.2708 H6            1 RES     
    6652 H6         -80.1875   -35.5729    49.4113 H6            1 RES     
    6653 H6         -79.1119   -37.7447    49.9704 H6            1 RES     
    6654 H6         -77.7975   -36.8740    50.8695 H6            1 RES     
    6655 H6         -77.9860   -36.6470    49.0927 H6            1 RES     
    6656 C0         -91.2851   -19.9083    59.0311 C0            1 RES     
    6657 C1         -92.5728   -20.2088    58.6841 C1            1 RES     
    6658 C1         -93.1864   -21.0290    59.5601 C1            1 RES     
    6659 C1         -92.3851   -21.3981    60.5099 C1            1 RES     
    6660 C1         -91.0502   -20.8068    60.3122 C1            1 RES     
    6661 C1         -90.3483   -22.1419    60.1142 C1            1 RES     
    6662 C1         -91.0082   -23.2605    60.5342 C1            1 RES     
    6663 S2         -92.5573   -22.8900    61.4251 S2            1 RES     
    6664 C1         -90.5355   -24.6774    60.2361 C1            1 RES     
    6665 C1         -89.2038   -24.9366    59.7967 C1            1 RES     
    6666 N3         -88.7789   -26.1999    59.5039 N3            1 RES     
    6667 C1         -89.5852   -27.2817    59.5876 C1            1 RES     
    6668 C1         -90.9038   -27.1055    59.9882 C1            1 RES     
    6669 C1         -91.3830   -25.8022    60.3221 C1            1 RES     
    6670 N3         -92.6950   -25.7570    60.6884 N3            1 RES     
    6671 S2         -93.1627   -27.3424    60.5781 S2            1 RES     
    6672 N3         -91.7950   -28.1225    60.0794 N3            1 RES     
    6673 S2         -94.7177   -21.5036    59.0791 S2            1 RES     
    6674 C1         -94.6272   -20.5969    57.6518 C1            1 RES     
    6675 C1         -93.3756   -19.9768    57.5547 C1            1 RES     
    6676 C0         -91.2308   -18.3232    59.2738 C0            1 RES     
    6677 C0         -92.1462   -17.0067    59.4269 C0            1 RES     
    6678 C0         -93.2063   -16.7670    58.3061 C0            1 RES     
    6679 C0         -94.6284   -16.6832    58.8922 C0            1 RES     
    6680 C0         -95.7453   -16.6355    57.8340 C0            1 RES     
    6681 C0         -97.1045   -16.4392    58.5324 C0            1 RES     
    6682 C0         -98.2956   -16.5795    57.5763 C0            1 RES     
    6683 C0         -99.6121   -16.3390    58.3187 C0            1 RES     
    6684 C0         -91.1088   -15.7981    59.4694 C0            1 RES     
    6685 C0         -91.4379   -14.2773    59.5944 C0            1 RES     
    6686 C0         -91.8125   -13.5103    58.2892 C0            1 RES     
    6687 C0         -91.4074   -12.0064    58.3729 C0            1 RES     
    6688 C0         -91.6598   -11.2230    57.0679 C0            1 RES     
    6689 C0         -90.8326    -9.9172    56.9415 C0            1 RES     
    6690 C0         -91.0479    -8.8837    58.0566 C0            1 RES     
    6691 C0         -90.2112    -7.6238    57.7954 C0            1 RES     
    6692 C0         -90.2424   -20.0902    57.8258 C0            1 RES     
    6693 C0         -88.6730   -19.6192    57.7870 C0            1 RES     
    6694 C0         -88.4875   -18.0583    57.9606 C0            1 RES     
    6695 C0         -87.1392   -17.4266    57.6294 C0            1 RES     
    6696 C0         -87.1008   -15.8883    57.6700 C0            1 RES     
    6697 C0         -87.1525   -15.3188    59.1029 C0            1 RES     
    6698 C0         -86.6022   -13.8830    59.1785 C0            1 RES     
    6699 C0         -87.4527   -12.8594    58.4464 C0            1 RES     
    6700 C0         -87.5641   -20.4738    58.5541 C0            1 RES     
    6701 C0         -86.1876   -20.4639    57.7864 C0            1 RES     
    6702 C0         -84.9624   -21.3320    58.1851 C0            1 RES     
    6703 C0         -83.9478   -20.7782    59.2385 C0            1 RES     
    6704 C0         -82.5205   -21.2891    58.8683 C0            1 RES     
    6705 C0         -81.3476   -20.8397    59.7663 C0            1 RES     
    6706 C0         -80.0099   -21.2300    59.0886 C0            1 RES     
    6707 C0         -78.7772   -20.8840    59.9225 C0            1 RES     
    6708 H4         -89.4309   -22.2074    59.5905 H4            1 RES     
    6709 H5         -88.4854   -24.1385    59.7045 H5            1 RES     
    6710 H4         -93.0801   -19.4142    56.6833 H4            1 RES     
    6711 H6         -90.5430   -18.2475    60.1431 H6            1 RES     
    6712 H6         -90.8218   -17.9461    58.3582 H6            1 RES     
    6713 H6         -92.6603   -17.0446    60.4125 H6            1 RES     
    6714 H6         -93.0070   -15.8410    57.7375 H6            1 RES     
    6715 H6         -93.1322   -17.5280    57.5380 H6            1 RES     
    6716 H6         -94.8129   -17.5796    59.5243 H6            1 RES     
    6717 H6         -94.6795   -15.7751    59.5327 H6            1 RES     
    6718 H6         -95.5812   -15.8030    57.1148 H6            1 RES     
    6719 H6         -95.7403   -17.5970    57.2745 H6            1 RES     
    6720 H6         -97.1189   -15.4292    59.0002 H6            1 RES     
    6721 H6         -97.2215   -17.2023    59.3326 H6            1 RES     
    6722 H6         -98.2144   -15.8512    56.7412 H6            1 RES     
    6723 H6         -98.3059   -17.6089    57.1553 H6            1 RES     
    6724 H6         -99.7176   -17.0494    59.1672 H6            1 RES     
    6725 H6         -99.6475   -15.3006    58.7129 H6            1 RES     
    6726 H6        -100.4700   -16.4849    57.6291 H6            1 RES     
    6727 H6         -90.4741   -16.0166    60.3562 H6            1 RES     
    6728 H6         -90.4423   -15.8565    58.5801 H6            1 RES     
    6729 H6         -92.1234   -14.0462    60.4345 H6            1 RES     
    6730 H6         -90.4467   -13.8558    59.8755 H6            1 RES     
    6731 H6         -91.2174   -13.9322    57.4480 H6            1 RES     
    6732 H6         -92.8905   -13.6246    58.0554 H6            1 RES     
    6733 H6         -91.9052   -11.4950    59.2236 H6            1 RES     
    6734 H6         -90.3218   -11.9710    58.5493 H6            1 RES     
    6735 H6         -91.3411   -11.8477    56.2049 H6            1 RES     
    6736 H6         -92.7466   -11.0202    56.9613 H6            1 RES     
    6737 H6         -91.0866    -9.4467    55.9658 H6            1 RES     
    6738 H6         -89.7515   -10.1814    56.9155 H6            1 RES     
    6739 H6         -90.7361    -9.3144    59.0316 H6            1 RES     
    6740 H6         -92.1189    -8.5978    58.1090 H6            1 RES     
    6741 H6         -90.5157    -7.1444    56.8398 H6            1 RES     
    6742 H6         -89.1290    -7.8723    57.7403 H6            1 RES     
    6743 H6         -90.3594    -6.8907    58.6166 H6            1 RES     
    6744 H6         -90.2622   -21.1645    57.5389 H6            1 RES     
    6745 H6         -90.6863   -19.5659    56.9488 H6            1 RES     
    6746 H6         -88.4505   -19.8252    56.7175 H6            1 RES     
    6747 H6         -88.7109   -17.7678    59.0045 H6            1 RES     
    6748 H6         -89.1732   -17.5736    57.2330 H6            1 RES     
    6749 H6         -86.3848   -17.7453    58.3702 H6            1 RES     
    6750 H6         -86.8723   -17.7405    56.5970 H6            1 RES     
    6751 H6         -86.1099   -15.6186    57.2471 H6            1 RES     
    6752 H6         -87.8831   -15.4384    57.0188 H6            1 RES     
    6753 H6         -86.4752   -15.9207    59.7451 H6            1 RES     
    6754 H6         -88.1757   -15.3897    59.5281 H6            1 RES     
    6755 H6         -85.5717   -13.8655    58.7619 H6            1 RES     
    6756 H6         -86.5438   -13.5784    60.2458 H6            1 RES     
    6757 H6         -86.9842   -11.8556    58.5350 H6            1 RES     
    6758 H6         -88.4387   -12.8328    58.9316 H6            1 RES     
    6759 H6         -87.5592   -13.1048    57.3700 H6            1 RES     
    6760 H6         -87.4902   -20.1813    59.6245 H6            1 RES     
    6761 H6         -87.8388   -21.5390    58.4883 H6            1 RES     
    6762 H6         -86.4591   -20.8280    56.7721 H6            1 RES     
    6763 H6         -85.7533   -19.4832    57.6244 H6            1 RES     
    6764 H6         -84.3912   -21.3186    57.2296 H6            1 RES     
    6765 H6         -85.2150   -22.3972    58.3660 H6            1 RES     
    6766 H6         -84.2535   -21.0642    60.2684 H6            1 RES     
    6767 H6         -83.9012   -19.6688    59.1804 H6            1 RES     
    6768 H6         -82.3016   -20.8932    57.8506 H6            1 RES     
    6769 H6         -82.5169   -22.3993    58.8185 H6            1 RES     
    6770 H6         -81.4338   -21.3251    60.7623 H6            1 RES     
    6771 H6         -81.3611   -19.7361    59.8993 H6            1 RES     
    6772 H6         -79.9262   -20.6916    58.1175 H6            1 RES     
    6773 H6         -79.9908   -22.3222    58.8833 H6            1 RES     
    6774 H6         -78.7811   -21.4532    60.8751 H6            1 RES     
    6775 H6         -78.7348   -19.7959    60.1367 H6            1 RES     
    6776 H6         -77.8611   -21.1629    59.3544 H6            1 RES     
    6777 C0         -99.4185   -21.1749    49.8098 C0            1 RES     
    6778 C1         -99.9947   -22.3492    50.2070 C1            1 RES     
    6779 C1        -100.6581   -22.2521    51.3763 C1            1 RES     
    6780 C1        -100.5442   -21.0684    51.8925 C1            1 RES     
    6781 C1         -99.7082   -20.2129    51.0322 C1            1 RES     
    6782 C1         -98.6041   -20.0364    52.0638 C1            1 RES     
    6783 C1         -98.9102   -20.3333    53.3603 C1            1 RES     
    6784 S2        -100.6754   -20.7225    53.6119 S2            1 RES     
    6785 C1         -97.8747   -20.3966    54.4755 C1            1 RES     
    6786 C1         -96.5792   -19.8221    54.3165 C1            1 RES     
    6787 N3         -95.6370   -19.8953    55.3009 N3            1 RES     
    6788 C1         -95.8529   -20.5283    56.4757 C1            1 RES     
    6789 C1         -97.0847   -21.1319    56.6955 C1            1 RES     
    6790 C1         -98.1048   -21.0618    55.6984 C1            1 RES     
    6791 N3         -99.2628   -21.7016    56.0259 N3            1 RES     
    6792 S2         -98.9375   -22.3019    57.5353 S2            1 RES     
    6793 N3         -97.3884   -21.8100    57.8290 N3            1 RES     
    6794 S2        -101.2582   -23.7118    51.9332 S2            1 RES     
    6795 C1        -100.6545   -24.5521    50.5927 C1            1 RES     
    6796 C1         -99.9490   -23.6789    49.7558 C1            1 RES     
    6797 C0        -100.1138   -20.7659    48.4228 C0            1 RES     
    6798 C0        -101.3328   -21.1242    47.4327 C0            1 RES     
    6799 C0        -101.4749   -22.6247    47.0252 C0            1 RES     
    6800 C0        -102.8588   -23.1791    47.4129 C0            1 RES     
    6801 C0        -103.0082   -24.6983    47.2143 C0            1 RES     
    6802 C0        -104.4585   -25.1152    47.5249 C0            1 RES     
    6803 C0        -104.6529   -26.6365    47.5482 C0            1 RES     
    6804 C0        -106.1167   -26.9871    47.8254 C0            1 RES     
    6805 C0        -101.0795   -20.2259    46.1414 C0            1 RES     
    6806 C0        -101.9469   -20.1736    44.8446 C0            1 RES     
    6807 C0        -101.6915   -21.2657    43.7610 C0            1 RES     
    6808 C0        -102.0142   -20.7378    42.3292 C0            1 RES     
    6809 C0        -101.6796   -21.7433    41.2079 C0            1 RES     
    6810 C0        -101.5055   -21.0983    39.8082 C0            1 RES     
    6811 C0        -102.7206   -20.3234    39.2780 C0            1 RES     
    6812 C0        -102.4404   -19.7735    37.8727 C0            1 RES     
    6813 C0         -97.8840   -21.3357    49.3711 C0            1 RES     
    6814 C0         -96.9371   -20.2202    48.6324 C0            1 RES     
    6815 C0         -97.4895   -19.7728    47.2197 C0            1 RES     
    6816 C0         -96.5772   -18.9981    46.2741 C0            1 RES     
    6817 C0         -97.1426   -18.7499    44.8640 C0            1 RES     
    6818 C0         -98.2670   -17.6938    44.8395 C0            1 RES     
    6819 C0         -98.4582   -17.0800    43.4407 C0            1 RES     
    6820 C0         -98.9812   -18.0605    42.4053 C0            1 RES     
    6821 C0         -96.3173   -19.0150    49.4761 C0            1 RES     
    6822 C0         -94.8886   -18.6096    48.9485 C0            1 RES     
    6823 C0         -93.9567   -17.5881    49.6569 C0            1 RES     
    6824 C0         -94.0976   -16.0676    49.3189 C0            1 RES     
    6825 C0         -92.6849   -15.4094    49.3977 C0            1 RES     
    6826 C0         -92.5814   -13.9033    49.0732 C0            1 RES     
    6827 C0         -91.0874   -13.5108    48.9523 C0            1 RES     
    6828 C0         -90.8647   -12.0220    48.6900 C0            1 RES     
    6829 H4         -97.6178   -19.7838    51.7744 H4            1 RES     
    6830 H5         -96.3150   -19.2914    53.4164 H5            1 RES     
    6831 H4         -99.4158   -24.0248    48.8845 H4            1 RES     
    6832 H6        -100.1939   -19.6623    48.5229 H6            1 RES     
    6833 H6         -99.4058   -21.0881    47.6861 H6            1 RES     
    6834 H6        -102.2822   -20.7823    47.9005 H6            1 RES     
    6835 H6        -101.3285   -22.7759    45.9407 H6            1 RES     
    6836 H6        -100.6717   -23.2158    47.4495 H6            1 RES     
    6837 H6        -103.0446   -22.9688    48.4892 H6            1 RES     
    6838 H6        -103.6220   -22.6446    46.8052 H6            1 RES     
    6839 H6        -102.7596   -24.9927    46.1708 H6            1 RES     
    6840 H6        -102.3072   -25.2138    47.9073 H6            1 RES     
    6841 H6        -105.1277   -24.6655    46.7574 H6            1 RES     
    6842 H6        -104.7493   -24.7219    48.5234 H6            1 RES     
    6843 H6        -104.3530   -27.0838    46.5764 H6            1 RES     
    6844 H6        -104.0225   -27.0725    48.3541 H6            1 RES     
    6845 H6        -106.4486   -26.5448    48.7897 H6            1 RES     
    6846 H6        -106.7659   -26.6007    47.0104 H6            1 RES     
    6847 H6        -106.2397   -28.0891    47.8830 H6            1 RES     
    6848 H6        -101.0990   -19.1834    46.5283 H6            1 RES     
    6849 H6        -100.0472   -20.4061    45.7670 H6            1 RES     
    6850 H6        -103.0260   -20.0199    45.0466 H6            1 RES     
    6851 H6        -101.5819   -19.2359    44.3685 H6            1 RES     
    6852 H6        -100.6044   -21.5066    43.7511 H6            1 RES     
    6853 H6        -102.2592   -22.1912    43.9865 H6            1 RES     
    6854 H6        -103.0721   -20.4118    42.2418 H6            1 RES     
    6855 H6        -101.3768   -19.8578    42.1553 H6            1 RES     
    6856 H6        -100.6975   -22.2160    41.4286 H6            1 RES     
    6857 H6        -102.4484   -22.5446    41.1865 H6            1 RES     
    6858 H6        -101.2585   -21.9096    39.0881 H6            1 RES     
    6859 H6        -100.6367   -20.4031    39.8418 H6            1 RES     
    6860 H6        -102.9415   -19.4677    39.9505 H6            1 RES     
    6861 H6        -103.6065   -20.9901    39.2316 H6            1 RES     
    6862 H6        -102.2442   -20.6043    37.1607 H6            1 RES     
    6863 H6        -101.5587   -19.0963    37.8817 H6            1 RES     
    6864 H6        -103.3176   -19.1992    37.5061 H6            1 RES     
    6865 H6         -97.3258   -21.6883    50.2660 H6            1 RES     
    6866 H6         -97.8499   -22.2011    48.6704 H6            1 RES     
    6867 H6         -96.0502   -20.8539    48.4148 H6            1 RES     
    6868 H6         -98.3926   -19.1473    47.3510 H6            1 RES     
    6869 H6         -97.7014   -20.7038    46.6516 H6            1 RES     
    6870 H6         -96.3866   -17.9894    46.6810 H6            1 RES     
    6871 H6         -95.6422   -19.5882    46.1602 H6            1 RES     
    6872 H6         -96.2904   -18.3328    44.2868 H6            1 RES     
    6873 H6         -97.4560   -19.6976    44.3720 H6            1 RES     
    6874 H6         -97.9654   -16.8441    45.4879 H6            1 RES     
    6875 H6         -99.2165   -18.1068    45.2404 H6            1 RES     
    6876 H6         -97.4892   -16.6625    43.0906 H6            1 RES     
    6877 H6         -99.1840   -16.2413    43.5147 H6            1 RES     
    6878 H6         -99.0784   -17.5480    41.4241 H6            1 RES     
    6879 H6         -99.9775   -18.3928    42.7302 H6            1 RES     
    6880 H6         -98.3053   -18.9314    42.2827 H6            1 RES     
    6881 H6         -97.0297   -18.1651    49.5594 H6            1 RES     
    6882 H6         -96.0761   -19.3851    50.4857 H6            1 RES     
    6883 H6         -94.3223   -19.5650    48.9871 H6            1 RES     
    6884 H6         -94.8474   -18.3020    47.9091 H6            1 RES     
    6885 H6         -92.9768   -17.8723    49.2115 H6            1 RES     
    6886 H6         -93.8513   -17.7672    50.7469 H6            1 RES     
    6887 H6         -94.8370   -15.5813    49.9917 H6            1 RES     
    6888 H6         -94.4386   -15.9378    48.2686 H6            1 RES     
    6889 H6         -92.0541   -15.9333    48.6441 H6            1 RES     
    6890 H6         -92.2425   -15.5814    50.4024 H6            1 RES     
    6891 H6         -93.0733   -13.3145    49.8773 H6            1 RES     
    6892 H6         -93.0794   -13.6796    48.1048 H6            1 RES     
    6893 H6         -90.6322   -14.0770    48.1085 H6            1 RES     
    6894 H6         -90.5454   -13.7807    49.8843 H6            1 RES     
    6895 H6         -91.2415   -11.4177    49.5411 H6            1 RES     
    6896 H6         -91.3676   -11.7038    47.7532 H6            1 RES     
    6897 H6         -89.7735   -11.8287    48.5823 H6            1 RES     
    6898 C0         -98.9825   -33.5187    49.3309 C0            1 RES     
    6899 C1         -99.1957   -33.7811    50.6555 C1            1 RES     
    6900 C1        -100.4117   -33.3944    51.0895 C1            1 RES     
    6901 C1        -101.0851   -32.7999    50.1549 C1            1 RES     
    6902 C1        -100.2890   -32.7277    48.9171 C1            1 RES     
    6903 C1        -100.2149   -31.2083    48.9026 C1            1 RES     
    6904 C1        -101.1140   -30.5337    49.6767 C1            1 RES     
    6905 S2        -102.3582   -31.6227    50.4492 S2            1 RES     
    6906 C1        -101.0507   -29.0322    49.9243 C1            1 RES     
    6907 C1        -100.2598   -28.1785    49.1001 C1            1 RES     
    6908 N3        -100.1778   -26.8358    49.3295 N3            1 RES     
    6909 C1        -100.8153   -26.2276    50.3547 C1            1 RES     
    6910 C1        -101.5883   -26.9977    51.2147 C1            1 RES     
    6911 C1        -101.7158   -28.4036    50.9983 C1            1 RES     
    6912 N3        -102.4898   -29.0506    51.9148 N3            1 RES     
    6913 S2        -102.9663   -27.8262    52.9240 S2            1 RES     
    6914 N3        -102.2453   -26.4853    52.2837 N3            1 RES     
    6915 S2        -100.6342   -33.5954    52.7361 S2            1 RES     
    6916 C1         -99.0809   -34.2382    52.9391 C1            1 RES     
    6917 C1         -98.3968   -34.2374    51.7173 C1            1 RES     
    6918 C0         -98.7690   -34.9354    48.6086 C0            1 RES     
    6919 C0         -98.8818   -36.5274    48.8262 C0            1 RES     
    6920 C0         -98.1781   -37.1038    50.0951 C0            1 RES     
    6921 C0         -99.1783   -37.8532    50.9956 C0            1 RES     
    6922 C0         -98.6008   -38.2883    52.3546 C0            1 RES     
    6923 C0         -99.6509   -39.1211    53.1143 C0            1 RES     
    6924 C0         -99.2401   -39.4295    54.5596 C0            1 RES     
    6925 C0        -100.3035   -40.2872    55.2493 C0            1 RES     
    6926 C0         -98.2446   -37.1595    47.5097 C0            1 RES     
    6927 C0         -98.0750   -38.6756    47.1788 C0            1 RES     
    6928 C0         -96.8296   -39.4077    47.7664 C0            1 RES     
    6929 C0         -96.3722   -40.5840    46.8500 C0            1 RES     
    6930 C0         -95.0802   -41.2774    47.3301 C0            1 RES     
    6931 C0         -94.3385   -42.0730    46.2246 C0            1 RES     
    6932 C0         -95.1483   -43.1929    45.5551 C0            1 RES     
    6933 C0         -94.2939   -43.9311    44.5156 C0            1 RES     
    6934 C0         -97.5820   -32.7912    49.0438 C0            1 RES     
    6935 C0         -96.8789   -32.5234    47.5876 C0            1 RES     
    6936 C0         -96.5639   -33.8548    46.7946 C0            1 RES     
    6937 C0         -95.6325   -33.8010    45.5879 C0            1 RES     
    6938 C0         -95.2547   -35.1646    44.9817 C0            1 RES     
    6939 C0         -96.4148   -35.8264    44.2095 C0            1 RES     
    6940 C0         -95.9174   -36.8777    43.2009 C0            1 RES     
    6941 C0         -95.2867   -38.0992    43.8467 C0            1 RES     
    6942 C0         -97.4074   -31.3434    46.6512 C0            1 RES     
    6943 C0         -96.2351   -30.6813    45.8318 C0            1 RES     
    6944 C0         -96.3948   -29.4051    44.9603 C0            1 RES     
    6945 C0         -96.8468   -29.5526    43.4704 C0            1 RES     
    6946 C0         -96.1506   -28.4382    42.6287 C0            1 RES     
    6947 C0         -96.4347   -28.4090    41.1113 C0            1 RES     
    6948 C0         -95.4613   -27.4139    40.4307 C0            1 RES     
    6949 C0         -95.6939   -27.2602    38.9284 C0            1 RES     
    6950 H4         -99.4414   -30.7015    48.3876 H4            1 RES     
    6951 H5         -99.7190   -28.5705    48.2542 H5            1 RES     
    6952 H4         -97.3626   -34.5329    51.6386 H4            1 RES     
    6953 H6         -99.2933   -34.7812    47.6413 H6            1 RES     
    6954 H6         -97.7039   -35.0113    48.5217 H6            1 RES     
    6955 H6         -99.9580   -36.8073    48.8477 H6            1 RES     
    6956 H6         -97.3553   -37.7940    49.8359 H6            1 RES     
    6957 H6         -97.6589   -36.3209    50.6355 H6            1 RES     
    6958 H6        -100.0455   -37.1888    51.2048 H6            1 RES     
    6959 H6         -99.5362   -38.7462    50.4370 H6            1 RES     
    6960 H6         -97.6789   -38.8965    52.2224 H6            1 RES     
    6961 H6         -98.3457   -37.3751    52.9364 H6            1 RES     
    6962 H6         -99.8139   -40.0736    52.5617 H6            1 RES     
    6963 H6        -100.6112   -38.5616    53.1478 H6            1 RES     
    6964 H6         -98.2699   -39.9704    54.5832 H6            1 RES     
    6965 H6         -99.1328   -38.4748    55.1199 H6            1 RES     
    6966 H6        -101.2896   -39.7744    55.2337 H6            1 RES     
    6967 H6        -100.4002   -41.2676    54.7350 H6            1 RES     
    6968 H6        -100.0185   -40.4692    56.3068 H6            1 RES     
    6969 H6         -98.8797   -36.7668    46.6856 H6            1 RES     
    6970 H6         -97.2272   -36.7355    47.3558 H6            1 RES     
    6971 H6         -99.0096   -39.2579    47.3069 H6            1 RES     
    6972 H6         -97.8739   -38.6450    46.0844 H6            1 RES     
    6973 H6         -95.9751   -38.6939    47.7829 H6            1 RES     
    6974 H6         -97.0233   -39.7552    48.8014 H6            1 RES     
    6975 H6         -97.1781   -41.3361    46.7163 H6            1 RES     
    6976 H6         -96.1447   -40.1572    45.8616 H6            1 RES     
    6977 H6         -94.3550   -40.5010    47.6586 H6            1 RES     
    6978 H6         -95.3089   -41.9241    48.2036 H6            1 RES     
    6979 H6         -93.4253   -42.5169    46.6794 H6            1 RES     
    6980 H6         -94.0084   -41.3619    45.4344 H6            1 RES     
    6981 H6         -96.0305   -42.7594    45.0382 H6            1 RES     
    6982 H6         -95.4931   -43.9214    46.3179 H6            1 RES     
    6983 H6         -93.4140   -44.4067    45.0006 H6            1 RES     
    6984 H6         -93.9330   -43.2308    43.7311 H6            1 RES     
    6985 H6         -94.8939   -44.7262    44.0241 H6            1 RES     
    6986 H6         -97.6105   -31.8125    49.5711 H6            1 RES     
    6987 H6         -96.8096   -33.3751    49.5947 H6            1 RES     
    6988 H6         -95.8921   -32.1451    47.9321 H6            1 RES     
    6989 H6         -97.5062   -34.3069    46.4312 H6            1 RES     
    6990 H6         -96.0205   -34.5225    47.4970 H6            1 RES     
    6991 H6         -96.1207   -33.2531    44.7628 H6            1 RES     
    6992 H6         -94.6917   -33.3101    45.9188 H6            1 RES     
    6993 H6         -94.4592   -34.9346    44.2416 H6            1 RES     
    6994 H6         -94.8227   -35.8502    45.7444 H6            1 RES     
    6995 H6         -96.9149   -35.0499    43.5928 H6            1 RES     
    6996 H6         -97.1719   -36.2486    44.9035 H6            1 RES     
    6997 H6         -95.1796   -36.4053    42.5165 H6            1 RES     
    6998 H6         -96.7791   -37.2212    42.5885 H6            1 RES     
    6999 H6         -94.9421   -38.8008    43.0568 H6            1 RES     
    7000 H6         -96.0594   -38.5977    44.4490 H6            1 RES     
    7001 H6         -94.4181   -37.8287    44.4813 H6            1 RES     
    7002 H6         -98.2696   -31.6697    46.0293 H6            1 RES     
    7003 H6         -97.7213   -30.5042    47.2929 H6            1 RES     
    7004 H6         -95.5107   -30.3824    46.6198 H6            1 RES     
    7005 H6         -95.6826   -31.3545    45.1851 H6            1 RES     
    7006 H6         -95.3322   -29.0810    44.8876 H6            1 RES     
    7007 H6         -96.9233   -28.5786    45.4789 H6            1 RES     
    7008 H6         -97.9552   -29.5233    43.3902 H6            1 RES     
    7009 H6         -96.4891   -30.5198    43.0547 H6            1 RES     
    7010 H6         -95.0547   -28.6047    42.7360 H6            1 RES     
    7011 H6         -96.3938   -27.4386    43.0489 H6            1 RES     
    7012 H6         -97.4884   -28.1023    40.9355 H6            1 RES     
    7013 H6         -96.2716   -29.4145    40.6662 H6            1 RES     
    7014 H6         -94.4172   -27.7713    40.5789 H6            1 RES     
    7015 H6         -95.5544   -26.4095    40.8977 H6            1 RES     
    7016 H6         -96.7017   -26.8387    38.7331 H6            1 RES     
    7017 H6         -95.5885   -28.2348    38.4081 H6            1 RES     
    7018 H6         -94.9367   -26.5589    38.5107 H6            1 RES     
    7019 C0         -93.8327   -35.1054    60.4552 C0            1 RES     
    7020 C1         -94.6968   -34.3423    61.1899 C1            1 RES     
    7021 C1         -95.9552   -34.8248    61.2082 C1            1 RES     
    7022 C1         -96.0720   -35.8810    60.4658 C1            1 RES     
    7023 C1         -94.7837   -36.2035    59.8278 C1            1 RES     
    7024 C1         -95.2832   -35.9722    58.4096 C1            1 RES     
    7025 C1         -96.6348   -35.9575    58.2203 C1            1 RES     
    7026 S2         -97.5761   -36.4034    59.7188 S2            1 RES     
    7027 C1         -97.2960   -35.5493    56.9103 C1            1 RES     
    7028 C1         -96.5529   -35.4829    55.6949 C1            1 RES     
    7029 N3         -97.1313   -35.0946    54.5215 N3            1 RES     
    7030 C1         -98.4295   -34.7287    54.4308 C1            1 RES     
    7031 C1         -99.2128   -34.7468    55.5780 C1            1 RES     
    7032 C1         -98.6509   -35.1652    56.8225 C1            1 RES     
    7033 N3         -99.5149   -35.1282    57.8759 N3            1 RES     
    7034 S2        -100.9180   -34.5853    57.1821 S2            1 RES     
    7035 N3        -100.5161   -34.3752    55.5940 N3            1 RES     
    7036 S2         -97.0459   -33.8311    61.9982 S2            1 RES     
    7037 C1         -95.8478   -32.6941    62.3712 C1            1 RES     
    7038 C1         -94.6212   -33.0915    61.8252 C1            1 RES     
    7039 C0         -92.7183   -35.6499    61.4732 C0            1 RES     
    7040 C0         -92.3435   -35.7723    63.0349 C0            1 RES     
    7041 C0         -92.4169   -34.4548    63.8694 C0            1 RES     
    7042 C0         -93.3915   -34.5984    65.0537 C0            1 RES     
    7043 C0         -93.6606   -33.2863    65.8123 C0            1 RES     
    7044 C0         -94.5530   -33.5750    67.0345 C0            1 RES     
    7045 C0         -95.0381   -32.3007    67.7369 C0            1 RES     
    7046 C0         -95.8877   -32.6516    68.9606 C0            1 RES     
    7047 C0         -90.8582   -36.3488    63.0481 C0            1 RES     
    7048 C0         -89.9778   -36.6573    64.2997 C0            1 RES     
    7049 C0         -89.1977   -35.4704    64.9438 C0            1 RES     
    7050 C0         -87.8826   -35.9544    65.6285 C0            1 RES     
    7051 C0         -87.0185   -34.8069    66.1915 C0            1 RES     
    7052 C0         -85.5291   -35.1815    66.4081 C0            1 RES     
    7053 C0         -85.2717   -36.3580    67.3609 C0            1 RES     
    7054 C0         -83.7652   -36.6005    67.5263 C0            1 RES     
    7055 C0         -92.9463   -34.2513    59.4267 C0            1 RES     
    7056 C0         -91.6611   -34.7690    58.5510 C0            1 RES     
    7057 C0         -90.4640   -35.2830    59.4474 C0            1 RES     
    7058 C0         -89.0933   -35.4921    58.8117 C0            1 RES     
    7059 C0         -87.9549   -35.8337    59.7899 C0            1 RES     
    7060 C0         -88.0482   -37.2679    60.3507 C0            1 RES     
    7061 C0         -86.6947   -37.7743    60.8813 C0            1 RES     
    7062 C0         -86.1994   -37.0318    62.1103 C0            1 RES     
    7063 C0         -91.8916   -35.6530    57.2418 C0            1 RES     
    7064 C0         -90.8143   -35.3437    56.1338 C0            1 RES     
    7065 C0         -90.8622   -35.9147    54.6897 C0            1 RES     
    7066 C0         -90.2104   -37.3064    54.3995 C0            1 RES     
    7067 C0         -89.6189   -37.2852    52.9556 C0            1 RES     
    7068 C0         -88.8981   -38.5584    52.4621 C0            1 RES     
    7069 C0         -88.1677   -38.2459    51.1318 C0            1 RES     
    7070 C0         -87.4660   -39.4572    50.5192 C0            1 RES     
    7071 H4         -94.6140   -35.7411    57.6228 H4            1 RES     
    7072 H5         -95.5119   -35.7609    55.6659 H5            1 RES     
    7073 H4         -93.7413   -32.4702    61.8783 H4            1 RES     
    7074 H6         -92.5487   -36.6815    61.0974 H6            1 RES     
    7075 H6         -91.8928   -34.9855    61.3155 H6            1 RES     
    7076 H6         -93.0055   -36.5355    63.5000 H6            1 RES     
    7077 H6         -91.4287   -34.1575    64.2635 H6            1 RES     
    7078 H6         -92.6741   -33.6132    63.2369 H6            1 RES     
    7079 H6         -94.3707   -34.9652    64.6744 H6            1 RES     
    7080 H6         -92.9699   -35.3554    65.7514 H6            1 RES     
    7081 H6         -92.7111   -32.8198    66.1560 H6            1 RES     
    7082 H6         -94.1757   -32.5813    65.1229 H6            1 RES     
    7083 H6         -93.9769   -34.2005    67.7529 H6            1 RES     
    7084 H6         -95.4509   -34.1444    66.7091 H6            1 RES     
    7085 H6         -94.1751   -31.6815    68.0629 H6            1 RES     
    7086 H6         -95.6586   -31.7080    67.0294 H6            1 RES     
    7087 H6         -96.7563   -33.2797    68.6661 H6            1 RES     
    7088 H6         -95.2785   -33.2075    69.7055 H6            1 RES     
    7089 H6         -96.2697   -31.7245    69.4373 H6            1 RES     
    7090 H6         -90.9416   -37.3253    62.5223 H6            1 RES     
    7091 H6         -90.2092   -35.7025    62.4159 H6            1 RES     
    7092 H6         -90.4947   -37.2847    65.0535 H6            1 RES     
    7093 H6         -89.1777   -37.2940    63.8596 H6            1 RES     
    7094 H6         -88.8739   -34.7789    64.1333 H6            1 RES     
    7095 H6         -89.8394   -34.9106    65.6542 H6            1 RES     
    7096 H6         -88.0865   -36.7005    66.4253 H6            1 RES     
    7097 H6         -87.2751   -36.4476    64.8549 H6            1 RES     
    7098 H6         -86.9993   -33.9747    65.4541 H6            1 RES     
    7099 H6         -87.4752   -34.4239    67.1287 H6            1 RES     
    7100 H6         -85.0061   -34.2824    66.8030 H6            1 RES     
    7101 H6         -85.0763   -35.4270    65.4213 H6            1 RES     
    7102 H6         -85.7311   -37.2811    66.9485 H6            1 RES     
    7103 H6         -85.7115   -36.1442    68.3570 H6            1 RES     
    7104 H6         -83.2723   -35.7069    67.9669 H6            1 RES     
    7105 H6         -83.2904   -36.8221    66.5457 H6            1 RES     
    7106 H6         -83.5900   -37.4647    68.2018 H6            1 RES     
    7107 H6         -93.6503   -33.7728    58.7111 H6            1 RES     
    7108 H6         -92.5289   -33.3986    60.0096 H6            1 RES     
    7109 H6         -91.3222   -33.7946    58.1371 H6            1 RES     
    7110 H6         -90.7330   -36.2493    59.9144 H6            1 RES     
    7111 H6         -90.2686   -34.4910    60.2018 H6            1 RES     
    7112 H6         -89.1307   -36.3483    58.1154 H6            1 RES     
    7113 H6         -88.8197   -34.5451    58.2980 H6            1 RES     
    7114 H6         -87.0302   -35.7824    59.1770 H6            1 RES     
    7115 H6         -87.8677   -35.0781    60.6022 H6            1 RES     
    7116 H6         -88.3059   -37.9552    59.5173 H6            1 RES     
    7117 H6         -88.8469   -37.3496    61.1177 H6            1 RES     
    7118 H6         -85.9338   -37.6928    60.0749 H6            1 RES     
    7119 H6         -86.7948   -38.8487    61.1482 H6            1 RES     
    7120 H6         -85.2157   -37.4442    62.4221 H6            1 RES     
    7121 H6         -86.9248   -37.1992    62.9191 H6            1 RES     
    7122 H6         -86.0812   -35.9460    61.9170 H6            1 RES     
    7123 H6         -91.9925   -36.7324    57.4896 H6            1 RES     
    7124 H6         -92.8137   -35.3077    56.7468 H6            1 RES     
    7125 H6         -90.9013   -34.2447    55.9936 H6            1 RES     
    7126 H6         -89.7835   -35.5070    56.4298 H6            1 RES     
    7127 H6         -90.1946   -35.1919    54.1689 H6            1 RES     
    7128 H6         -91.8541   -35.8069    54.2041 H6            1 RES     
    7129 H6         -90.9465   -38.1255    54.5510 H6            1 RES     
    7130 H6         -89.3490   -37.4766    55.0816 H6            1 RES     
    7131 H6         -88.8575   -36.4726    52.9422 H6            1 RES     
    7132 H6         -90.4150   -37.0288    52.2240 H6            1 RES     
    7133 H6         -89.6397   -39.3731    52.3152 H6            1 RES     
    7134 H6         -88.1405   -38.8887    53.2056 H6            1 RES     
    7135 H6         -87.3971   -37.4640    51.3177 H6            1 RES     
    7136 H6         -88.8893   -37.8519    50.3839 H6            1 RES     
    7137 H6         -88.2059   -40.2396    50.2513 H6            1 RES     
    7138 H6         -86.7140   -39.8770    51.2192 H6            1 RES     
    7139 H6         -86.9394   -39.1436    49.5896 H6            1 RES     
    7140 C0         -96.4678   -23.8251    64.7678 C0            1 RES     
    7141 C1         -97.8033   -23.8032    64.4769 C1            1 RES     
    7142 C1         -98.5160   -24.7199    65.1614 C1            1 RES     
    7143 C1         -97.7531   -25.4617    65.9017 C1            1 RES     
    7144 C1         -96.3428   -25.0664    65.7410 C1            1 RES     
    7145 C1         -95.9078   -26.3924    65.1354 C1            1 RES     
    7146 C1         -96.7417   -27.4591    65.3081 C1            1 RES     
    7147 S2         -98.1536   -27.0981    66.4066 S2            1 RES     
    7148 C1         -96.5513   -28.7975    64.6066 C1            1 RES     
    7149 C1         -95.3116   -29.1413    63.9913 C1            1 RES     
    7150 N3         -95.1396   -30.3278    63.3395 N3            1 RES     
    7151 C1         -96.1261   -31.2434    63.2126 C1            1 RES     
    7152 C1         -97.3700   -30.9698    63.7675 C1            1 RES     
    7153 C1         -97.5859   -29.7478    64.4744 C1            1 RES     
    7154 N3         -98.8490   -29.5899    64.9615 N3            1 RES     
    7155 S2         -99.6043   -30.9852    64.4846 S2            1 RES     
    7156 N3         -98.4275   -31.8121    63.6728 N3            1 RES     
    7157 S2        -100.1288   -24.7862    64.7191 S2            1 RES     
    7158 C1         -99.9395   -23.5505    63.5770 C1            1 RES     
    7159 C1         -98.6012   -23.1418    63.5283 C1            1 RES     
    7160 C0         -96.1123   -22.3986    65.4106 C0            1 RES     
    7161 C0         -96.7625   -21.0429    65.9884 C0            1 RES     
    7162 C0         -97.8112   -20.3343    65.0742 C0            1 RES     
    7163 C0         -99.1652   -20.1821    65.7929 C0            1 RES     
    7164 C0        -100.3020   -19.6634    64.8940 C0            1 RES     
    7165 C0        -101.5684   -19.4456    65.7440 C0            1 RES     
    7166 C0        -102.8078   -19.1208    64.9009 C0            1 RES     
    7167 C0        -104.0221   -18.8804    65.8008 C0            1 RES     
    7168 C0         -95.5201   -20.0797    66.2479 C0            1 RES     
    7169 C0         -95.5584   -18.6189    66.7970 C0            1 RES     
    7170 C0         -95.8457   -17.4727    65.7793 C0            1 RES     
    7171 C0         -95.1680   -16.1372    66.2151 C0            1 RES     
    7172 C0         -95.3324   -14.9956    65.1904 C0            1 RES     
    7173 C0         -94.2863   -13.8594    65.3329 C0            1 RES     
    7174 C0         -94.2566   -13.1506    66.6948 C0            1 RES     
    7175 C0         -93.2158   -12.0226    66.6950 C0            1 RES     
    7176 C0         -95.5329   -23.8381    63.4644 C0            1 RES     
    7177 C0         -93.9072   -23.6389    63.4027 C0            1 RES     
    7178 C0         -93.4305   -22.2379    63.9605 C0            1 RES     
    7179 C0         -92.0060   -21.7700    63.6809 C0            1 RES     
    7180 C0         -91.6841   -20.3298    64.1189 C0            1 RES     
    7181 C0         -91.5642   -20.1747    65.6492 C0            1 RES     
    7182 C0         -90.7569   -18.9253    66.0458 C0            1 RES     
    7183 C0         -91.4379   -17.6149    65.6905 C0            1 RES     
    7184 C0         -92.9397   -24.8411    63.8116 C0            1 RES     
    7185 C0         -91.6218   -24.8472    62.9473 C0            1 RES     
    7186 C0         -90.5596   -25.9803    62.9878 C0            1 RES     
    7187 C0         -89.4130   -25.9110    64.0492 C0            1 RES     
    7188 C0         -88.1225   -26.5280    63.4256 C0            1 RES     
    7189 C0         -86.8468   -26.5410    64.2954 C0            1 RES     
    7190 C0         -85.6362   -26.9447    63.4166 C0            1 RES     
    7191 C0         -84.3237   -27.0480    64.1922 C0            1 RES     
    7192 H4         -95.0431   -26.4615    64.5289 H4            1 RES     
    7193 H5         -94.4638   -28.4777    64.0441 H5            1 RES     
    7194 H4         -98.2479   -22.4183    62.8108 H4            1 RES     
    7195 H6         -95.3830   -22.6783    66.2007 H6            1 RES     
    7196 H6         -95.6837   -21.8573    64.5914 H6            1 RES     
    7197 H6         -97.2288   -21.2646    66.9735 H6            1 RES     
    7198 H6         -97.4718   -19.3337    64.7516 H6            1 RES     
    7199 H6         -97.9135   -20.8569    64.1303 H6            1 RES     
    7200 H6         -99.4817   -21.1746    66.1828 H6            1 RES     
    7201 H6         -99.0192   -19.4889    66.6506 H6            1 RES     
    7202 H6        -100.0212   -18.7042    64.4056 H6            1 RES     
    7203 H6        -100.4994   -20.4217    64.1044 H6            1 RES     
    7204 H6        -101.3755   -18.6146    66.4590 H6            1 RES     
    7205 H6        -101.7863   -20.3690    66.3239 H6            1 RES     
    7206 H6        -102.6329   -18.2150    64.2818 H6            1 RES     
    7207 H6        -103.0263   -19.9790    64.2281 H6            1 RES     
    7208 H6        -104.2170   -19.7688    66.4398 H6            1 RES     
    7209 H6        -103.8481   -17.9987    66.4546 H6            1 RES     
    7210 H6        -104.9231   -18.6886    65.1810 H6            1 RES     
    7211 H6         -94.8961   -20.6342    66.9828 H6            1 RES     
    7212 H6         -94.9174   -20.0006    65.3157 H6            1 RES     
    7213 H6         -96.1503   -18.5178    67.7289 H6            1 RES     
    7214 H6         -94.4947   -18.4594    67.0841 H6            1 RES     
    7215 H6         -95.3776   -17.7395    64.8048 H6            1 RES     
    7216 H6         -96.9359   -17.3399    65.6261 H6            1 RES     
    7217 H6         -95.5237   -15.8042    67.2129 H6            1 RES     
    7218 H6         -94.0874   -16.3303    66.2918 H6            1 RES     
    7219 H6         -95.1738   -15.4031    64.1680 H6            1 RES     
    7220 H6         -96.3672   -14.5957    65.2433 H6            1 RES     
    7221 H6         -94.4944   -13.1043    64.5428 H6            1 RES     
    7222 H6         -93.2744   -14.2801    65.1372 H6            1 RES     
    7223 H6         -93.9844   -13.8773    67.4893 H6            1 RES     
    7224 H6         -95.2533   -12.7182    66.9206 H6            1 RES     
    7225 H6         -93.4709   -11.2563    65.9312 H6            1 RES     
    7226 H6         -92.2013   -12.4206    66.4752 H6            1 RES     
    7227 H6         -93.1888   -11.5288    67.6896 H6            1 RES     
    7228 H6         -95.7627   -24.7741    62.9095 H6            1 RES     
    7229 H6         -95.9130   -23.0279    62.8009 H6            1 RES     
    7230 H6         -93.7759   -23.5773    62.3006 H6            1 RES     
    7231 H6         -93.5484   -22.2123    65.0603 H6            1 RES     
    7232 H6         -94.0485   -21.4665    63.4530 H6            1 RES     
    7233 H6         -91.2895   -22.3990    64.2381 H6            1 RES     
    7234 H6         -91.8491   -21.8281    62.5820 H6            1 RES     
    7235 H6         -90.6812   -20.1210    63.6901 H6            1 RES     
    7236 H6         -92.3997   -19.5964    63.6848 H6            1 RES     
    7237 H6         -90.9800   -21.0323    66.0448 H6            1 RES     
    7238 H6         -92.5624   -20.1904    66.1353 H6            1 RES     
    7239 H6         -89.7610   -18.9637    65.5533 H6            1 RES     
    7240 H6         -90.5943   -18.9390    67.1453 H6            1 RES     
    7241 H6         -90.7896   -16.7650    65.9943 H6            1 RES     
    7242 H6         -92.3789   -17.5610    66.2563 H6            1 RES     
    7243 H6         -91.6372   -17.5348    64.6023 H6            1 RES     
    7244 H6         -92.7642   -24.8696    64.9093 H6            1 RES     
    7245 H6         -93.4080   -25.7873    63.4954 H6            1 RES     
    7246 H6         -92.0020   -24.8694    61.9033 H6            1 RES     
    7247 H6         -91.0227   -23.9448    63.0075 H6            1 RES     
    7248 H6         -90.0404   -25.7994    62.0198 H6            1 RES     
    7249 H6         -90.9948   -26.9977    62.9066 H6            1 RES     
    7250 H6         -89.7183   -26.4143    64.9923 H6            1 RES     
    7251 H6         -89.1664   -24.8516    64.2794 H6            1 RES     
    7252 H6         -87.8818   -25.9097    62.5311 H6            1 RES     
    7253 H6         -88.3249   -27.5668    63.0869 H6            1 RES     
    7254 H6         -86.9746   -27.2600    65.1333 H6            1 RES     
    7255 H6         -86.6513   -25.5296    64.7134 H6            1 RES     
    7256 H6         -85.5000   -26.1819    62.6168 H6            1 RES     
    7257 H6         -85.8273   -27.9263    62.9317 H6            1 RES     
    7258 H6         -84.3881   -27.8479    64.9586 H6            1 RES     
    7259 H6         -84.0725   -26.0826    64.6787 H6            1 RES     
    7260 H6         -83.5016   -27.3069    63.4874 H6            1 RES     
    7261 C0        -105.1121   -21.1607    56.3437 C0            1 RES     
    7262 C1        -105.8752   -22.2877    56.4721 C1            1 RES     
    7263 C1        -106.4547   -22.4074    57.6831 C1            1 RES     
    7264 C1        -106.1019   -21.4461    58.4780 C1            1 RES     
    7265 C1        -105.1637   -20.5369    57.7970 C1            1 RES     
    7266 C1        -103.9995   -20.8338    58.7302 C1            1 RES     
    7267 C1        -104.2948   -21.4205    59.9267 C1            1 RES     
    7268 S2        -106.0878   -21.5684    60.2324 S2            1 RES     
    7269 C1        -103.2381   -21.9563    60.8839 C1            1 RES     
    7270 C1        -101.8679   -21.5811    60.7597 C1            1 RES     
    7271 N3        -100.9107   -22.0752    61.5975 N3            1 RES     
    7272 C1        -101.1847   -22.9617    62.5805 C1            1 RES     
    7273 C1        -102.4949   -23.3916    62.7496 C1            1 RES     
    7274 C1        -103.5297   -22.8842    61.9061 C1            1 RES     
    7275 N3        -104.7691   -23.3901    62.1621 N3            1 RES     
    7276 S2        -104.4901   -24.4263    63.4242 S2            1 RES     
    7277 N3        -102.8652   -24.2951    63.6894 N3            1 RES     
    7278 S2        -107.2862   -23.8448    57.8924 S2            1 RES     
    7279 C1        -106.9095   -24.3725    56.3282 C1            1 RES     
    7280 C1        -106.0951   -23.4315    55.6864 C1            1 RES     
    7281 C0        -105.7838   -20.2786    55.1839 C0            1 RES     
    7282 C0        -107.0922   -20.1464    54.2538 C0            1 RES     
    7283 C0        -107.5259   -21.4330    53.4830 C0            1 RES     
    7284 C0        -108.9687   -21.8375    53.8404 C0            1 RES     
    7285 C0        -109.4034   -23.1979    53.2661 C0            1 RES     
    7286 C0        -110.8896   -23.4401    53.5918 C0            1 RES     
    7287 C0        -111.3587   -24.8560    53.2343 C0            1 RES     
    7288 C0        -112.8475   -25.0239    53.5464 C0            1 RES     
    7289 C0        -106.7383   -18.9826    53.2247 C0            1 RES     
    7290 C0        -107.6402   -18.4350    52.0743 C0            1 RES     
    7291 C0        -107.6398   -19.2146    50.7235 C0            1 RES     
    7292 C0        -107.9259   -18.2687    49.5168 C0            1 RES     
    7293 C0        -107.8336   -18.9689    48.1451 C0            1 RES     
    7294 C0        -107.6089   -18.0024    46.9531 C0            1 RES     
    7295 C0        -108.6843   -16.9232    46.7609 C0            1 RES     
    7296 C0        -108.3731   -16.0628    45.5286 C0            1 RES     
    7297 C0        -103.6551   -21.4447    55.7359 C0            1 RES     
    7298 C0        -102.5547   -20.3406    55.2293 C0            1 RES     
    7299 C0        -103.0802   -19.4386    54.0414 C0            1 RES     
    7300 C0        -102.0859   -18.5950    53.2500 C0            1 RES     
    7301 C0        -102.6605   -17.8803    52.0137 C0            1 RES     
    7302 C0        -103.5719   -16.6882    52.3723 C0            1 RES     
    7303 C0        -103.7116   -15.6916    51.2074 C0            1 RES     
    7304 C0        -104.4529   -16.2508    50.0054 C0            1 RES     
    7305 C0        -101.6860   -19.5318    56.2968 C0            1 RES     
    7306 C0        -100.2330   -19.2376    55.7618 C0            1 RES     
    7307 C0         -99.0978   -18.6170    56.6219 C0            1 RES     
    7308 C0         -98.9728   -17.0605    56.7085 C0            1 RES     
    7309 C0         -97.4612   -16.6903    56.8235 C0            1 RES     
    7310 C0         -97.0981   -15.1913    56.8963 C0            1 RES     
    7311 C0         -95.5646   -15.0315    56.7423 C0            1 RES     
    7312 C0         -95.0848   -13.5855    56.8591 C0            1 RES     
    7313 H4        -102.9980   -20.6770    58.4255 H4            1 RES     
    7314 H5        -101.5526   -20.8748    60.0091 H5            1 RES     
    7315 H4        -105.6752   -23.6077    54.7088 H4            1 RES     
    7316 H6        -105.6553   -19.2472    55.5764 H6            1 RES     
    7317 H6        -105.1817   -20.4981    54.3253 H6            1 RES     
    7318 H6        -107.9401   -19.7948    54.8818 H6            1 RES     
    7319 H6        -107.4600   -21.3029    52.3879 H6            1 RES     
    7320 H6        -106.8261   -22.2414    53.6603 H6            1 RES     
    7321 H6        -109.0629   -21.9028    54.9468 H6            1 RES     
    7322 H6        -109.6480   -21.0390    53.4684 H6            1 RES     
    7323 H6        -109.2615   -23.2316    52.1633 H6            1 RES     
    7324 H6        -108.7777   -23.9916    53.7310 H6            1 RES     
    7325 H6        -111.4996   -22.6936    53.0352 H6            1 RES     
    7326 H6        -111.0569   -23.2935    54.6812 H6            1 RES     
    7327 H6        -111.1910   -25.0625    52.1556 H6            1 RES     
    7328 H6        -110.7825   -25.5936    53.8350 H6            1 RES     
    7329 H6        -113.0478   -24.8147    54.6196 H6            1 RES     
    7330 H6        -113.4517   -24.3276    52.9258 H6            1 RES     
    7331 H6        -113.1679   -26.0636    53.3250 H6            1 RES     
    7332 H6        -106.5482   -18.0977    53.8710 H6            1 RES     
    7333 H6        -105.7749   -19.2202    52.7208 H6            1 RES     
    7334 H6        -108.6623   -18.1676    52.4100 H6            1 RES     
    7335 H6        -107.1317   -17.4759    51.8280 H6            1 RES     
    7336 H6        -106.6170   -19.6186    50.5488 H6            1 RES     
    7337 H6        -108.3568   -20.0602    50.7513 H6            1 RES     
    7338 H6        -108.9089   -17.7621    49.6177 H6            1 RES     
    7339 H6        -107.1466   -17.4919    49.5201 H6            1 RES     
    7340 H6        -106.9458   -19.6386    48.1410 H6            1 RES     
    7341 H6        -108.7366   -19.5960    47.9871 H6            1 RES     
    7342 H6        -107.5484   -18.6142    46.0258 H6            1 RES     
    7343 H6        -106.6267   -17.4955    47.0856 H6            1 RES     
    7344 H6        -108.7132   -16.2606    47.6516 H6            1 RES     
    7345 H6        -109.6787   -17.3968    46.6251 H6            1 RES     
    7346 H6        -108.3658   -16.6869    44.6088 H6            1 RES     
    7347 H6        -107.3826   -15.5684    45.6315 H6            1 RES     
    7348 H6        -109.1460   -15.2740    45.4093 H6            1 RES     
    7349 H6        -103.1304   -22.1159    56.4508 H6            1 RES     
    7350 H6        -103.8128   -22.0782    54.8332 H6            1 RES     
    7351 H6        -101.8101   -21.0271    54.7709 H6            1 RES     
    7352 H6        -103.8462   -18.7336    54.4161 H6            1 RES     
    7353 H6        -103.4853   -20.1301    53.2719 H6            1 RES     
    7354 H6        -101.6948   -17.7821    53.8869 H6            1 RES     
    7355 H6        -101.2813   -19.2764    52.8982 H6            1 RES     
    7356 H6        -101.7738   -17.4666    51.4883 H6            1 RES     
    7357 H6        -103.1649   -18.5918    51.3225 H6            1 RES     
    7358 H6        -103.0899   -16.1104    53.1891 H6            1 RES     
    7359 H6        -104.5616   -17.0335    52.7387 H6            1 RES     
    7360 H6        -102.6996   -15.3591    50.8891 H6            1 RES     
    7361 H6        -104.2669   -14.7980    51.5661 H6            1 RES     
    7362 H6        -104.4995   -15.4801    49.2061 H6            1 RES     
    7363 H6        -105.4772   -16.4911    50.3241 H6            1 RES     
    7364 H6        -103.9547   -17.1533    49.5961 H6            1 RES     
    7365 H6        -102.2257   -18.6324    56.6663 H6            1 RES     
    7366 H6        -101.4705   -20.1990    57.1471 H6            1 RES     
    7367 H6         -99.8506   -20.2465    55.4955 H6            1 RES     
    7368 H6        -100.1841   -18.6678    54.8399 H6            1 RES     
    7369 H6         -98.2083   -18.9250    56.0275 H6            1 RES     
    7370 H6         -98.9770   -19.1030    57.6121 H6            1 RES     
    7371 H6         -99.5785   -16.6628    57.5515 H6            1 RES     
    7372 H6         -99.3322   -16.5934    55.7656 H6            1 RES     
    7373 H6         -96.9727   -17.0836    55.9032 H6            1 RES     
    7374 H6         -97.0119   -17.2016    57.7020 H6            1 RES     
    7375 H6         -97.4359   -14.7731    57.8690 H6            1 RES     
    7376 H6         -97.5907   -14.6319    56.0715 H6            1 RES     
    7377 H6         -95.2605   -15.4114    55.7408 H6            1 RES     
    7378 H6         -95.0390   -15.6318    57.5160 H6            1 RES     
    7379 H6         -95.3046   -13.1844    57.8702 H6            1 RES     
    7380 H6         -95.5635   -12.9445    56.0899 H6            1 RES     
    7381 H6         -93.9828   -13.5519    56.7036 H6            1 RES     
    7382 C0        -106.9715   -32.7971    52.6121 C0            1 RES     
    7383 C1        -107.1678   -33.3740    53.8358 C1            1 RES     
    7384 C1        -108.2709   -32.9270    54.4682 C1            1 RES     
    7385 C1        -108.8661   -31.9967    53.7894 C1            1 RES     
    7386 C1        -108.1283   -31.7197    52.5445 C1            1 RES     
    7387 C1        -107.7773   -30.2881    52.9212 C1            1 RES     
    7388 C1        -108.5007   -29.7136    53.9260 C1            1 RES     
    7389 S2        -109.8866   -30.7530    54.5000 S2            1 RES     
    7390 C1        -108.1516   -28.3691    54.5508 C1            1 RES     
    7391 C1        -107.2563   -27.4641    53.9082 C1            1 RES     
    7392 N3        -106.9188   -26.2682    54.4722 N3            1 RES     
    7393 C1        -107.3859   -25.8684    55.6761 C1            1 RES     
    7394 C1        -108.2466   -26.7070    56.3733 C1            1 RES     
    7395 C1        -108.6398   -27.9589    55.8095 C1            1 RES     
    7396 N3        -109.4762   -28.6962    56.5933 N3            1 RES     
    7397 S2        -109.6728   -27.7345    57.9279 S2            1 RES     
    7398 N3        -108.7483   -26.4068    57.5960 N3            1 RES     
    7399 S2        -108.4503   -33.5325    56.0182 S2            1 RES     
    7400 C1        -107.0336   -34.4523    55.8988 C1            1 RES     
    7401 C1        -106.4181   -34.2288    54.6612 C1            1 RES     
    7402 C0        -107.0552   -33.9765    51.5274 C0            1 RES     
    7403 C0        -107.4481   -35.5261    51.3303 C0            1 RES     
    7404 C0        -106.8042   -36.5358    52.3321 C0            1 RES     
    7405 C0        -107.8824   -37.3287    53.0950 C0            1 RES     
    7406 C0        -107.3325   -38.2084    54.2322 C0            1 RES     
    7407 C0        -108.4813   -39.0335    54.8428 C0            1 RES     
    7408 C0        -108.0679   -39.7895    56.1117 C0            1 RES     
    7409 C0        -109.2377   -40.6168    56.6497 C0            1 RES     
    7410 C0        -106.9991   -35.8686    49.8404 C0            1 RES     
    7411 C0        -107.1261   -37.2422    49.1099 C0            1 RES     
    7412 C0        -106.0104   -38.3015    49.3655 C0            1 RES     
    7413 C0        -105.8194   -39.2399    48.1343 C0            1 RES     
    7414 C0        -104.6559   -40.2407    48.2925 C0            1 RES     
    7415 C0        -104.1246   -40.8132    46.9526 C0            1 RES     
    7416 C0        -105.1562   -41.5578    46.0926 C0            1 RES     
    7417 C0        -104.5007   -42.1125    44.8205 C0            1 RES     
    7418 C0        -105.4760   -32.2590    52.3949 C0            1 RES     
    7419 C0        -104.8037   -31.7213    51.0002 C0            1 RES     
    7420 C0        -104.7753   -32.8172    49.8604 C0            1 RES     
    7421 C0        -103.9065   -32.5882    48.6278 C0            1 RES     
    7422 C0        -103.8138   -33.7759    47.6531 C0            1 RES     
    7423 C0        -105.1100   -34.0008    46.8472 C0            1 RES     
    7424 C0        -104.8611   -34.8019    45.5564 C0            1 RES     
    7425 C0        -104.4361   -36.2401    45.7978 C0            1 RES     
    7426 C0        -105.1492   -30.2596    50.4593 C0            1 RES     
    7427 C0        -103.9145   -29.6001    49.7352 C0            1 RES     
    7428 C0        -103.8773   -28.1256    49.2471 C0            1 RES     
    7429 C0        -104.4169   -27.7825    47.8199 C0            1 RES     
    7430 C0        -103.5676   -26.6100    47.2376 C0            1 RES     
    7431 C0        -103.9113   -26.1195    45.8144 C0            1 RES     
    7432 C0        -102.8043   -25.1498    45.3296 C0            1 RES     
    7433 C0        -103.0738   -24.5540    43.9486 C0            1 RES     
    7434 H4        -106.9486   -29.7936    52.4865 H4            1 RES     
    7435 H5        -106.8363   -27.6922    52.9421 H5            1 RES     
    7436 H4        -105.4605   -34.6570    54.4109 H4            1 RES     
    7437 H6        -107.5863   -33.4789    50.6879 H6            1 RES     
    7438 H6        -106.0272   -34.1995    51.3238 H6            1 RES     
    7439 H6        -108.5552   -35.6205    51.3790 H6            1 RES     
    7440 H6        -106.1349   -37.2538    51.8252 H6            1 RES     
    7441 H6        -106.1258   -36.0275    53.0073 H6            1 RES     
    7442 H6        -108.6023   -36.6141    53.5514 H6            1 RES     
    7443 H6        -108.4235   -37.9628    52.3584 H6            1 RES     
    7444 H6        -106.5449   -38.8998    53.8593 H6            1 RES     
    7445 H6        -106.8875   -37.5446    55.0061 H6            1 RES     
    7446 H6        -108.8417   -39.7576    54.0780 H6            1 RES     
    7447 H6        -109.3201   -38.3549    55.1117 H6            1 RES     
    7448 H6        -107.2134   -40.4678    55.9015 H6            1 RES     
    7449 H6        -107.7615   -39.0562    56.8896 H6            1 RES     
    7450 H6        -110.1126   -39.9646    56.8617 H6            1 RES     
    7451 H6        -109.5362   -41.3888    55.9082 H6            1 RES     
    7452 H6        -108.9424   -41.1261    57.5911 H6            1 RES     
    7453 H6        -107.5887   -35.1662    49.2113 H6            1 RES     
    7454 H6        -105.9294   -35.5917    49.7078 H6            1 RES     
    7455 H6        -108.1448   -37.6757    49.1684 H6            1 RES     
    7456 H6        -106.9735   -36.9461    48.0477 H6            1 RES     
    7457 H6        -105.0396   -37.7701    49.4878 H6            1 RES     
    7458 H6        -106.2166   -38.8829    50.2870 H6            1 RES     
    7459 H6        -106.7550   -39.7836    47.8849 H6            1 RES     
    7460 H6        -105.5633   -38.6019    47.2752 H6            1 RES     
    7461 H6        -103.7861   -39.7143    48.7430 H6            1 RES     
    7462 H6        -104.9589   -41.0556    48.9838 H6            1 RES     
    7463 H6        -103.2884   -41.5085    47.1875 H6            1 RES     
    7464 H6        -103.7064   -39.9769    46.3487 H6            1 RES     
    7465 H6        -105.9667   -40.8604    45.7925 H6            1 RES     
    7466 H6        -105.5932   -42.4007    46.6671 H6            1 RES     
    7467 H6        -103.7016   -42.8406    45.0792 H6            1 RES     
    7468 H6        -104.0539   -41.2930    44.2164 H6            1 RES     
    7469 H6        -105.2585   -42.6325    44.1968 H6            1 RES     
    7470 H6        -105.3001   -31.4716    53.1603 H6            1 RES     
    7471 H6        -104.7993   -33.0902    52.6987 H6            1 RES     
    7472 H6        -103.7493   -31.6194    51.3372 H6            1 RES     
    7473 H6        -105.8003   -32.9911    49.4816 H6            1 RES     
    7474 H6        -104.3318   -33.7317    50.3092 H6            1 RES     
    7475 H6        -104.3234   -31.7626    48.0245 H6            1 RES     
    7476 H6        -102.8774   -32.3682    48.9855 H6            1 RES     
    7477 H6        -103.0246   -33.4857    46.9275 H6            1 RES     
    7478 H6        -103.4802   -34.7057    48.1656 H6            1 RES     
    7479 H6        -105.4870   -33.0137    46.5051 H6            1 RES     
    7480 H6        -105.8989   -34.4668    47.4745 H6            1 RES     
    7481 H6        -104.0815   -34.2878    44.9533 H6            1 RES     
    7482 H6        -105.7985   -34.8181    44.9594 H6            1 RES     
    7483 H6        -104.2629   -36.7448    44.8230 H6            1 RES     
    7484 H6        -105.2586   -36.7507    46.3185 H6            1 RES     
    7485 H6        -103.5043   -36.3004    46.3964 H6            1 RES     
    7486 H6        -106.0845   -30.2567    49.8576 H6            1 RES     
    7487 H6        -105.2738   -29.5889    51.3248 H6            1 RES     
    7488 H6        -103.1120   -29.6519    50.5023 H6            1 RES     
    7489 H6        -103.5253   -30.1513    48.8858 H6            1 RES     
    7490 H6        -102.7777   -27.9730    49.1622 H6            1 RES     
    7491 H6        -104.2206   -27.3979    50.0113 H6            1 RES     
    7492 H6        -105.5036   -27.5508    47.8548 H6            1 RES     
    7493 H6        -104.2623   -28.6437    47.1338 H6            1 RES     
    7494 H6        -102.5171   -26.9772    47.1940 H6            1 RES     
    7495 H6        -103.6036   -25.7382    47.9257 H6            1 RES     
    7496 H6        -104.8978   -25.6078    45.8249 H6            1 RES     
    7497 H6        -103.9562   -26.9771    45.1083 H6            1 RES     
    7498 H6        -101.8378   -25.7006    45.2802 H6            1 RES     
    7499 H6        -102.6898   -24.3110    46.0497 H6            1 RES     
    7500 H6        -103.9950   -23.9356    43.9661 H6            1 RES     
    7501 H6        -103.1731   -25.3521    43.1838 H6            1 RES     
    7502 H6        -102.2208   -23.8993    43.6598 H6            1 RES     
    7503 C0        -101.6926   -38.1971    62.3978 C0            1 RES     
    7504 C1        -102.3671   -37.5336    63.3845 C1            1 RES     
    7505 C1        -103.6905   -37.7893    63.3942 C1            1 RES     
    7506 C1        -104.0333   -38.5672    62.4156 C1            1 RES     
    7507 C1        -102.8568   -38.9094    61.5972 C1            1 RES     
    7508 C1        -103.3703   -38.2193    60.3425 C1            1 RES     
    7509 C1        -104.7036   -37.9315    60.2916 C1            1 RES     
    7510 S2        -105.6406   -38.6103    61.7029 S2            1 RES     
    7511 C1        -105.3383   -37.0768    59.2023 C1            1 RES     
    7512 C1        -104.6526   -36.8026    57.9824 C1            1 RES     
    7513 N3        -105.2034   -36.0179    57.0113 N3            1 RES     
    7514 C1        -106.4152   -35.4331    57.1420 C1            1 RES     
    7515 C1        -107.1348   -35.6363    58.3129 C1            1 RES     
    7516 C1        -106.6023   -36.4663    59.3460 C1            1 RES     
    7517 N3        -107.3954   -36.5783    60.4488 N3            1 RES     
    7518 S2        -108.7054   -35.6432    60.0564 S2            1 RES     
    7519 N3        -108.3455   -35.0746    58.5481 N3            1 RES     
    7520 S2        -104.5426   -36.8852    64.5157 S2            1 RES     
    7521 C1        -103.1403   -36.1069    65.0589 C1            1 RES     
    7522 C1        -102.0340   -36.5351    64.3151 C1            1 RES     
    7523 C0        -100.6513   -39.1752    63.1283 C0            1 RES     
    7524 C0        -100.2336   -39.7811    64.5612 C0            1 RES     
    7525 C0        -100.0255   -38.7495    65.7145 C0            1 RES     
    7526 C0        -100.9541   -39.0504    66.9061 C0            1 RES     
    7527 C0        -100.9425   -37.9709    68.0035 C0            1 RES     
    7528 C0        -101.8154   -38.4331    69.1859 C0            1 RES     
    7529 C0        -102.0254   -37.3387    70.2397 C0            1 RES     
    7530 C0        -102.8677   -37.8673    71.4031 C0            1 RES     
    7531 C0         -98.8803   -40.5748    64.2832 C0            1 RES     
    7532 C0         -98.0148   -41.3550    65.3219 C0            1 RES     
    7533 C0         -97.0012   -40.5350    66.1778 C0            1 RES     
    7534 C0         -95.7671   -41.3974    66.5852 C0            1 RES     
    7535 C0         -94.6820   -40.6064    67.3451 C0            1 RES     
    7536 C0         -93.2783   -41.2653    67.3150 C0            1 RES     
    7537 C0         -93.1975   -42.6837    67.8980 C0            1 RES     
    7538 C0         -91.7551   -43.2062    67.8517 C0            1 RES     
    7539 C0        -100.7129   -37.2513    61.5501 C0            1 RES     
    7540 C0         -99.5864   -37.7127    60.4525 C0            1 RES     
    7541 C0         -98.4638   -38.6421    61.0664 C0            1 RES     
    7542 C0         -97.1856   -38.8910    60.2722 C0            1 RES     
    7543 C0         -96.0853   -39.6699    61.0153 C0            1 RES     
    7544 C0         -96.4143   -41.1674    61.1874 C0            1 RES     
    7545 C0         -95.1537   -42.0150    61.4372 C0            1 RES     
    7546 C0         -94.4744   -41.7298    62.7655 C0            1 RES     
    7547 C0        -100.0353   -38.1534    58.9853 C0            1 RES     
    7548 C0         -98.9718   -37.7334    57.9006 C0            1 RES     
    7549 C0         -99.1904   -37.8705    56.3686 C0            1 RES     
    7550 C0         -98.8191   -39.2166    55.6643 C0            1 RES     
    7551 C0         -98.3010   -38.8977    54.2273 C0            1 RES     
    7552 C0         -97.8497   -40.0871    53.3522 C0            1 RES     
    7553 C0         -97.1365   -39.5461    52.0875 C0            1 RES     
    7554 C0         -96.6981   -40.6410    51.1160 C0            1 RES     
    7555 H4        -102.7071   -37.8944    59.5842 H4            1 RES     
    7556 H5        -103.6828   -37.2290    57.7839 H5            1 RES     
    7557 H4        -101.0535   -36.1055    64.4459 H4            1 RES     
    7558 H6        -100.6913   -40.0775    62.4814 H6            1 RES     
    7559 H6         -99.7260   -38.6380    63.0731 H6            1 RES     
    7560 H6        -101.0023   -40.5231    64.8704 H6            1 RES     
    7561 H6         -98.9823   -38.7381    66.0779 H6            1 RES     
    7562 H6        -100.1527   -37.7363    65.3513 H6            1 RES     
    7563 H6        -102.0005   -39.1331    66.5379 H6            1 RES     
    7564 H6        -100.6469   -40.0282    67.3386 H6            1 RES     
    7565 H6         -99.9087   -37.7791    68.3664 H6            1 RES     
    7566 H6        -101.3507   -37.0293    67.5743 H6            1 RES     
    7567 H6        -101.3314   -39.3174    69.6580 H6            1 RES     
    7568 H6        -102.8166   -38.7360    68.8087 H6            1 RES     
    7569 H6        -101.0494   -36.9830    70.6338 H6            1 RES     
    7570 H6        -102.5586   -36.4811    69.7736 H6            1 RES     
    7571 H6        -103.8494   -38.2390    71.0376 H6            1 RES     
    7572 H6        -102.3371   -38.6983    71.9159 H6            1 RES     
    7573 H6        -103.0506   -37.0568    72.1396 H6            1 RES     
    7574 H6         -99.1657   -41.3421    63.5304 H6            1 RES     
    7575 H6         -98.1537   -39.8956    63.7841 H6            1 RES     
    7576 H6         -98.6026   -42.0713    65.9304 H6            1 RES     
    7577 H6         -97.3662   -41.9689    64.6573 H6            1 RES     
    7578 H6         -96.5937   -39.7107    65.5499 H6            1 RES     
    7579 H6         -97.4958   -40.0941    67.0671 H6            1 RES     
    7580 H6         -96.0674   -42.2894    67.1744 H6            1 RES     
    7581 H6         -95.2968   -41.7523    65.6559 H6            1 RES     
    7582 H6         -94.5444   -39.6188    66.8528 H6            1 RES     
    7583 H6         -95.0169   -40.4255    68.3885 H6            1 RES     
    7584 H6         -92.5815   -40.6075    67.8804 H6            1 RES     
    7585 H6         -92.9242   -41.3017    66.2603 H6            1 RES     
    7586 H6         -93.8370   -43.3698    67.3035 H6            1 RES     
    7587 H6         -93.5441   -42.6821    68.9522 H6            1 RES     
    7588 H6         -91.0867   -42.5613    68.4625 H6            1 RES     
    7589 H6         -91.3747   -43.2251    66.8072 H6            1 RES     
    7590 H6         -91.7105   -44.2390    68.2580 H6            1 RES     
    7591 H6        -101.3494   -36.4860    61.0542 H6            1 RES     
    7592 H6        -100.1197   -36.6717    62.2939 H6            1 RES     
    7593 H6         -99.0938   -36.7316    60.2781 H6            1 RES     
    7594 H6         -98.8837   -39.6416    61.2874 H6            1 RES     
    7595 H6         -98.0918   -38.1307    61.9800 H6            1 RES     
    7596 H6         -97.4116   -39.5052    59.3828 H6            1 RES     
    7597 H6         -96.7668   -37.8977    60.0009 H6            1 RES     
    7598 H6         -95.1962   -39.6051    60.3531 H6            1 RES     
    7599 H6         -95.8236   -39.1910    61.9851 H6            1 RES     
    7600 H6         -96.8319   -41.5477    60.2312 H6            1 RES     
    7601 H6         -97.1782   -41.3240    61.9779 H6            1 RES     
    7602 H6         -94.4288   -41.8415    60.6124 H6            1 RES     
    7603 H6         -95.4369   -43.0897    61.4219 H6            1 RES     
    7604 H6         -93.5697   -42.3675    62.8645 H6            1 RES     
    7605 H6         -95.1800   -41.9911    63.5668 H6            1 RES     
    7606 H6         -94.1679   -40.6673    62.8529 H6            1 RES     
    7607 H6        -100.3211   -39.2276    58.9503 H6            1 RES     
    7608 H6        -100.9002   -37.5390    58.6870 H6            1 RES     
    7609 H6         -98.8621   -36.6393    58.0618 H6            1 RES     
    7610 H6         -97.9760   -38.1385    58.0453 H6            1 RES     
    7611 H6         -98.4262   -37.1523    55.9947 H6            1 RES     
    7612 H6        -100.1670   -37.4723    56.0236 H6            1 RES     
    7613 H6         -99.6853   -39.9134    55.6646 H6            1 RES     
    7614 H6         -97.9730   -39.7063    56.1939 H6            1 RES     
    7615 H6         -97.4049   -38.2490    54.3554 H6            1 RES     
    7616 H6         -99.0695   -38.3233    53.6665 H6            1 RES     
    7617 H6         -98.7342   -40.6969    53.0677 H6            1 RES     
    7618 H6         -97.1320   -40.7283    53.9087 H6            1 RES     
    7619 H6         -96.2277   -38.9826    52.3982 H6            1 RES     
    7620 H6         -97.8073   -38.8491    51.5401 H6            1 RES     
    7621 H6         -97.5806   -41.1874    50.7236 H6            1 RES     
    7622 H6         -96.0043   -41.3542    51.6078 H6            1 RES     
    7623 H6         -96.1663   -40.1754    50.2557 H6            1 RES     
    7624 C0        -102.0109   -28.2587    69.7404 C0            1 RES     
    7625 C1        -103.3317   -27.9389    69.5924 C1            1 RES     
    7626 C1        -104.1681   -28.8782    70.0770 C1            1 RES     
    7627 C1        -103.5209   -29.9094    70.5222 C1            1 RES     
    7628 C1        -102.0711   -29.7223    70.3387 C1            1 RES     
    7629 C1        -101.9152   -30.8841    69.3690 C1            1 RES     
    7630 C1        -102.9218   -31.8052    69.3342 C1            1 RES     
    7631 S2        -104.1913   -31.5326    70.6165 S2            1 RES     
    7632 C1        -103.0128   -32.9123    68.2920 C1            1 RES     
    7633 C1        -101.8870   -33.2729    67.4945 C1            1 RES     
    7634 N3        -101.9660   -34.2467    66.5417 N3            1 RES     
    7635 C1        -103.1085   -34.9174    66.2730 C1            1 RES     
    7636 C1        -104.2542   -34.6061    66.9946 C1            1 RES     
    7637 C1        -104.2093   -33.6066    68.0137 C1            1 RES     
    7638 N3        -105.3981   -33.3832    68.6417 N3            1 RES     
    7639 S2        -106.4178   -34.4504    67.8895 S2            1 RES     
    7640 N3        -105.4515   -35.2046    66.7826 N3            1 RES     
    7641 S2        -105.7844   -28.5549    69.7865 S2            1 RES     
    7642 C1        -105.4244   -27.1018    68.9951 C1            1 RES     
    7643 C1        -104.0375   -26.9210    68.9293 C1            1 RES     
    7644 C0        -101.3704   -27.1417    70.6979 C0            1 RES     
    7645 C0        -101.7334   -25.9088    71.6688 C0            1 RES     
    7646 C0        -102.6752   -24.8145    71.0748 C0            1 RES     
    7647 C0        -103.9437   -24.6451    71.9323 C0            1 RES     
    7648 C0        -105.0062   -23.7203    71.3115 C0            1 RES     
    7649 C0        -106.1705   -23.5392    72.3041 C0            1 RES     
    7650 C0        -107.3668   -22.7967    71.6958 C0            1 RES     
    7651 C0        -108.4736   -22.6163    72.7374 C0            1 RES     
    7652 C0        -100.3246   -25.2714    72.0533 C0            1 RES     
    7653 C0        -100.0688   -24.0315    72.9666 C0            1 RES     
    7654 C0        -100.1876   -22.6191    72.3161 C0            1 RES     
    7655 C0         -99.2569   -21.5845    73.0205 C0            1 RES     
    7656 C0         -99.2561   -20.1948    72.3505 C0            1 RES     
    7657 C0         -98.0138   -19.3291    72.6864 C0            1 RES     
    7658 C0         -97.7917   -19.0359    74.1773 C0            1 RES     
    7659 C0         -96.5627   -18.1379    74.3747 C0            1 RES     
    7660 C0        -101.1554   -28.0671    68.3971 C0            1 RES     
    7661 C0         -99.5253   -28.1283    68.2371 C0            1 RES     
    7662 C0         -98.7745   -27.0321    69.0947 C0            1 RES     
    7663 C0         -97.3027   -26.7460    68.8147 C0            1 RES     
    7664 C0         -96.7022   -25.5543    69.5820 C0            1 RES     
    7665 C0         -96.4853   -25.8467    71.0813 C0            1 RES     
    7666 C0         -95.4450   -24.9042    71.7133 C0            1 RES     
    7667 C0         -95.8896   -23.4533    71.7791 C0            1 RES     
    7668 C0         -98.7772   -29.5385    68.2242 C0            1 RES     
    7669 C0         -97.5240   -29.5237    67.2685 C0            1 RES     
    7670 C0         -96.6871   -30.7828    66.9110 C0            1 RES     
    7671 C0         -95.4996   -31.1965    67.8408 C0            1 RES     
    7672 C0         -94.3743   -31.8220    66.9589 C0            1 RES     
    7673 C0         -93.0839   -32.2824    67.6710 C0            1 RES     
    7674 C0         -92.0098   -32.6226    66.6073 C0            1 RES     
    7675 C0         -90.7043   -33.1487    67.2018 C0            1 RES     
    7676 H4        -101.1068   -30.9252    68.6870 H4            1 RES     
    7677 H5        -100.9304   -32.7978    67.6391 H5            1 RES     
    7678 H4        -103.5910   -26.0966    68.3963 H4            1 RES     
    7679 H6        -100.6691   -27.7432    71.3150 H6            1 RES     
    7680 H6        -100.8880   -26.4746    70.0123 H6            1 RES     
    7681 H6        -102.1865   -26.3126    72.6009 H6            1 RES     
    7682 H6        -102.1732   -23.8336    70.9949 H6            1 RES     
    7683 H6        -102.9152   -25.0340    70.0409 H6            1 RES     
    7684 H6        -104.4186   -25.6405    72.0768 H6            1 RES     
    7685 H6        -103.6335   -24.2474    72.9238 H6            1 RES     
    7686 H6        -104.5770   -22.7237    71.0670 H6            1 RES     
    7687 H6        -105.3756   -24.1900    70.3731 H6            1 RES     
    7688 H6        -105.7956   -22.9795    73.1903 H6            1 RES     
    7689 H6        -106.5272   -24.5374    72.6399 H6            1 RES     
    7690 H6        -107.0575   -21.7973    71.3218 H6            1 RES     
    7691 H6        -107.7700   -23.3895    70.8455 H6            1 RES     
    7692 H6        -108.7985   -23.6014    73.1370 H6            1 RES     
    7693 H6        -108.1107   -21.9888    73.5797 H6            1 RES     
    7694 H6        -109.3517   -22.1166    72.2770 H6            1 RES     
    7695 H6         -99.7797   -26.1008    72.5554 H6            1 RES     
    7696 H6         -99.7614   -25.0397    71.1219 H6            1 RES     
    7697 H6        -100.5885   -24.0941    73.9439 H6            1 RES     
    7698 H6         -98.9819   -24.1338    73.1841 H6            1 RES     
    7699 H6         -99.8219   -22.6815    71.2662 H6            1 RES     
    7700 H6        -101.2408   -22.2723    72.3063 H6            1 RES     
    7701 H6         -99.4990   -21.4842    74.0996 H6            1 RES     
    7702 H6         -98.2277   -21.9659    72.9420 H6            1 RES     
    7703 H6         -99.2224   -20.3265    71.2468 H6            1 RES     
    7704 H6        -100.1964   -19.6605    72.6033 H6            1 RES     
    7705 H6         -98.1160   -18.3627    72.1446 H6            1 RES     
    7706 H6         -97.1065   -19.8402    72.2931 H6            1 RES     
    7707 H6         -97.6212   -19.9870    74.7246 H6            1 RES     
    7708 H6         -98.6807   -18.5244    74.6011 H6            1 RES     
    7709 H6         -96.7078   -17.1605    73.8657 H6            1 RES     
    7710 H6         -95.6497   -18.6214    73.9640 H6            1 RES     
    7711 H6         -96.3997   -17.9472    75.4568 H6            1 RES     
    7712 H6        -101.5784   -28.7641    67.6407 H6            1 RES     
    7713 H6        -101.4106   -27.0550    68.0077 H6            1 RES     
    7714 H6         -99.4360   -27.7893    67.1822 H6            1 RES     
    7715 H6         -98.8348   -27.2901    70.1690 H6            1 RES     
    7716 H6         -99.2631   -26.0605    68.8673 H6            1 RES     
    7717 H6         -96.6889   -27.6124    69.1179 H6            1 RES     
    7718 H6         -97.2100   -26.5254    67.7292 H6            1 RES     
    7719 H6         -95.6988   -25.4036    69.1305 H6            1 RES     
    7720 H6         -97.2903   -24.6229    69.4243 H6            1 RES     
    7721 H6         -96.0508   -26.8638    71.1819 H6            1 RES     
    7722 H6         -97.4459   -25.8311    71.6380 H6            1 RES     
    7723 H6         -94.4968   -24.9691    71.1365 H6            1 RES     
    7724 H6         -95.2371   -25.2454    72.7506 H6            1 RES     
    7725 H6         -95.0830   -22.8378    72.2323 H6            1 RES     
    7726 H6         -96.7776   -23.4029    72.4252 H6            1 RES     
    7727 H6         -96.1208   -23.0463    70.7735 H6            1 RES     
    7728 H6         -98.5593   -29.8954    69.2547 H6            1 RES     
    7729 H6         -99.4252   -30.2714    67.7169 H6            1 RES     
    7730 H6         -97.9496   -29.1959    66.2956 H6            1 RES     
    7731 H6         -96.7674   -28.7835    67.5061 H6            1 RES     
    7732 H6         -96.1887   -30.4311    65.9796 H6            1 RES     
    7733 H6         -97.3049   -31.6531    66.6076 H6            1 RES     
    7734 H6         -95.8481   -31.8819    68.6436 H6            1 RES     
    7735 H6         -95.0524   -30.2963    68.3159 H6            1 RES     
    7736 H6         -94.0658   -31.0304    66.2389 H6            1 RES     
    7737 H6         -94.7793   -32.6802    66.3807 H6            1 RES     
    7738 H6         -93.3027   -33.1724    68.2996 H6            1 RES     
    7739 H6         -92.6871   -31.4708    68.3188 H6            1 RES     
    7740 H6         -91.7731   -31.7029    66.0259 H6            1 RES     
    7741 H6         -92.4000   -33.3884    65.9026 H6            1 RES     
    7742 H6         -90.8789   -34.1063    67.7347 H6            1 RES     
    7743 H6         -90.2580   -32.4087    67.8982 H6            1 RES     
    7744 H6         -89.9770   -33.3357    66.3797 H6            1 RES     
    7745 C0        -110.3988   -22.0043    63.1591 C0            1 RES     
    7746 C1        -111.3489   -22.9821    63.0593 C1            1 RES     
    7747 C1        -111.8841   -23.3325    64.2456 C1            1 RES     
    7748 C1        -111.3246   -22.6976    65.2276 C1            1 RES     
    7749 C1        -110.2679   -21.8033    64.7232 C1            1 RES     
    7750 C1        -109.1362   -22.5318    65.4323 C1            1 RES     
    7751 C1        -109.4786   -23.3674    66.4558 C1            1 RES     
    7752 S2        -111.2523   -23.2969    66.8795 S2            1 RES     
    7753 C1        -108.4952   -24.3111    67.1357 C1            1 RES     
    7754 C1        -107.0866   -24.1465    66.9857 C1            1 RES     
    7755 N3        -106.1987   -25.0016    67.5711 N3            1 RES     
    7756 C1        -106.5850   -26.0663    68.3091 C1            1 RES     
    7757 C1        -107.9427   -26.3048    68.4822 C1            1 RES     
    7758 C1        -108.9046   -25.4228    67.9022 C1            1 RES     
    7759 N3        -110.2026   -25.7688    68.1322 N3            1 RES     
    7760 S2        -110.0606   -27.1426    69.0471 S2            1 RES     
    7761 N3        -108.4288   -27.3578    69.1833 N3            1 RES     
    7762 S2        -112.9547   -24.6153    64.1487 S2            1 RES     
    7763 C1        -112.7538   -24.7482    62.4726 C1            1 RES     
    7764 C1        -111.8111   -23.8142    62.0259 C1            1 RES     
    7765 C0        -110.9500   -20.7401    62.3391 C0            1 RES     
    7766 C0        -112.2534   -20.1449    61.6033 C0            1 RES     
    7767 C0        -112.9510   -21.0814    60.5670 C0            1 RES     
    7768 C0        -114.4254   -21.3258    60.9402 C0            1 RES     
    7769 C0        -115.1284   -22.3859    60.0733 C0            1 RES     
    7770 C0        -116.6172   -22.4607    60.4626 C0            1 RES     
    7771 C0        -117.3541   -23.6272    59.7927 C0            1 RES     
    7772 C0        -118.8325   -23.6274    60.1886 C0            1 RES     
    7773 C0        -111.7398   -18.8181    60.8861 C0            1 RES     
    7774 C0        -112.5780   -17.8356    60.0093 C0            1 RES     
    7775 C0        -112.7830   -18.2039    58.5077 C0            1 RES     
    7776 C0        -112.9460   -16.9297    57.6231 C0            1 RES     
    7777 C0        -113.0472   -17.2321    56.1136 C0            1 RES     
    7778 C0        -112.7042   -16.0263    55.2004 C0            1 RES     
    7779 C0        -113.5710   -14.7744    55.3994 C0            1 RES     
    7780 C0        -113.1643   -13.6723    54.4116 C0            1 RES     
    7781 C0        -109.0482   -22.3460    62.3639 C0            1 RES     
    7782 C0        -107.7885   -21.3416    62.0627 C0            1 RES     
    7783 C0        -108.1937   -20.0748    61.2072 C0            1 RES     
    7784 C0        -107.0991   -19.2216    60.5743 C0            1 RES     
    7785 C0        -107.5893   -18.1110    59.6279 C0            1 RES     
    7786 C0        -108.2489   -16.9302    60.3701 C0            1 RES     
    7787 C0        -108.2569   -15.6434    59.5251 C0            1 RES     
    7788 C0        -109.1429   -15.7219    58.2939 C0            1 RES     
    7789 C0        -106.7378   -21.0106    63.2181 C0            1 RES     
    7790 C0        -105.2818   -20.8237    62.6446 C0            1 RES     
    7791 C0        -104.0135   -20.6579    63.5264 C0            1 RES     
    7792 C0        -103.6010   -19.2273    64.0052 C0            1 RES     
    7793 C0        -102.0435   -19.1564    64.0704 C0            1 RES     
    7794 C0        -101.4086   -17.8156    64.4985 C0            1 RES     
    7795 C0         -99.8806   -17.8737    64.2482 C0            1 RES     
    7796 C0         -99.1387   -16.6144    64.6937 C0            1 RES     
    7797 H4        -108.1381   -22.4641    65.0865 H4            1 RES     
    7798 H5        -106.6820   -23.3232    66.4199 H5            1 RES     
    7799 H4        -111.4763   -23.7821    61.0012 H4            1 RES     
    7800 H6        -110.6164   -19.8916    62.9740 H6            1 RES     
    7801 H6        -110.4387   -20.8115    61.4003 H6            1 RES     
    7802 H6        -112.9925   -19.8448    62.3784 H6            1 RES     
    7803 H6        -112.9129   -20.6686    59.5430 H6            1 RES     
    7804 H6        -112.4040   -22.0109    60.4599 H6            1 RES     
    7805 H6        -114.4789   -21.6757    61.9946 H6            1 RES     
    7806 H6        -114.9631   -20.3556    60.8557 H6            1 RES     
    7807 H6        -115.0461   -22.1387    58.9919 H6            1 RES     
    7808 H6        -114.6382   -23.3682    60.2533 H6            1 RES     
    7809 H6        -117.1048   -21.5005    60.1807 H6            1 RES     
    7810 H6        -116.7043   -22.5931    61.5631 H6            1 RES     
    7811 H6        -117.2772   -23.5546    58.6867 H6            1 RES     
    7812 H6        -116.8960   -24.5855    60.1225 H6            1 RES     
    7813 H6        -118.9412   -23.6907    61.2931 H6            1 RES     
    7814 H6        -119.3266   -22.6983    59.8316 H6            1 RES     
    7815 H6        -119.3481   -24.4993    59.7339 H6            1 RES     
    7816 H6        -111.3609   -18.1881    61.7206 H6            1 RES     
    7817 H6        -110.8607   -19.0632    60.2493 H6            1 RES     
    7818 H6        -113.5171   -17.5065    60.4979 H6            1 RES     
    7819 H6        -111.9141   -16.9427    59.9759 H6            1 RES     
    7820 H6        -111.8609   -18.7067    58.1379 H6            1 RES     
    7821 H6        -113.6409   -18.8950    58.3806 H6            1 RES     
    7822 H6        -113.8136   -16.3159    57.9451 H6            1 RES     
    7823 H6        -112.0380   -16.3225    57.7563 H6            1 RES     
    7824 H6        -112.2985   -18.0113    55.8509 H6            1 RES     
    7825 H6        -114.0562   -17.6347    55.8826 H6            1 RES     
    7826 H6        -112.7999   -16.3616    54.1439 H6            1 RES     
    7827 H6        -111.6406   -15.7436    55.3679 H6            1 RES     
    7828 H6        -113.4366   -14.3861    56.4311 H6            1 RES     
    7829 H6        -114.6406   -15.0226    55.2386 H6            1 RES     
    7830 H6        -113.3141   -14.0126    53.3641 H6            1 RES     
    7831 H6        -112.0963   -13.3947    54.5467 H6            1 RES     
    7832 H6        -113.7840   -12.7653    54.5761 H6            1 RES     
    7833 H6        -108.6232   -23.2641    62.8256 H6            1 RES     
    7834 H6        -109.3610   -22.6727    61.3458 H6            1 RES     
    7835 H6        -107.2045   -21.9885    61.3728 H6            1 RES     
    7836 H6        -108.7992   -19.3838    61.8237 H6            1 RES     
    7837 H6        -108.7540   -20.4525    60.3252 H6            1 RES     
    7838 H6        -106.5366   -18.6903    61.3621 H6            1 RES     
    7839 H6        -106.4503   -19.9030    59.9824 H6            1 RES     
    7840 H6        -106.6669   -17.7205    59.1481 H6            1 RES     
    7841 H6        -108.2470   -18.5129    58.8252 H6            1 RES     
    7842 H6        -107.6319   -16.6859    61.2606 H6            1 RES     
    7843 H6        -109.2672   -17.1954    60.7247 H6            1 RES     
    7844 H6        -107.2169   -15.4073    59.2112 H6            1 RES     
    7845 H6        -108.6216   -14.8039    60.1558 H6            1 RES     
    7846 H6        -109.0841   -14.7648    57.7322 H6            1 RES     
    7847 H6        -110.1780   -15.8689    58.6335 H6            1 RES     
    7848 H6        -108.8382   -16.5467    57.6177 H6            1 RES     
    7849 H6        -107.0856   -20.1711    63.8592 H6            1 RES     
    7850 H6        -106.6094   -21.9114    63.8400 H6            1 RES     
    7851 H6        -105.1036   -21.7694    62.0888 H6            1 RES     
    7852 H6        -105.1717   -20.0390    61.9036 H6            1 RES     
    7853 H6        -103.2240   -20.9328    62.7912 H6            1 RES     
    7854 H6        -103.9383   -21.4098    64.3390 H6            1 RES     
    7855 H6        -104.0840   -18.9823    64.9760 H6            1 RES     
    7856 H6        -103.9118   -18.4672    63.2556 H6            1 RES     
    7857 H6        -101.6785   -19.3568    63.0375 H6            1 RES     
    7858 H6        -101.6557   -19.9555    64.7381 H6            1 RES     
    7859 H6        -101.6186   -17.6306    65.5740 H6            1 RES     
    7860 H6        -101.8276   -16.9785    63.8989 H6            1 RES     
    7861 H6         -99.6979   -18.0089    63.1581 H6            1 RES     
    7862 H6         -99.4389   -18.7411    64.7848 H6            1 RES     
    7863 H6         -99.2342   -16.4756    65.7905 H6            1 RES     
    7864 H6         -99.5266   -15.7175    64.1676 H6            1 RES     
    7865 H6         -98.0576   -16.7209    64.4494 H6            1 RES     
    7866 C0        -114.5323   -31.7014    56.7040 C0            1 RES     
    7867 C1        -114.7744   -32.5515    57.7469 C1            1 RES     
    7868 C1        -115.7464   -32.1202    58.5752 C1            1 RES     
    7869 C1        -116.1915   -30.9549    58.2226 C1            1 RES     
    7870 C1        -115.4736   -30.4720    57.0299 C1            1 RES     
    7871 C1        -114.8488   -29.2766    57.7334 C1            1 RES     
    7872 C1        -115.4074   -28.8889    58.9170 C1            1 RES     
    7873 S2        -116.9325   -29.8037    59.3266 S2            1 RES     
    7874 C1        -114.7889   -27.8438    59.8362 C1            1 RES     
    7875 C1        -113.7734   -26.9569    59.3716 C1            1 RES     
    7876 N3        -113.1965   -26.0339    60.1946 N3            1 RES     
    7877 C1        -113.5262   -25.9086    61.4996 C1            1 RES     
    7878 C1        -114.4931   -26.7531    62.0308 C1            1 RES     
    7879 C1        -115.1349   -27.7201    61.1985 C1            1 RES     
    7880 N3        -116.0554   -28.4963    61.8371 N3            1 RES     
    7881 S2        -116.0104   -27.9189    63.3892 S2            1 RES     
    7882 N3        -114.8742   -26.7215    63.3310 N3            1 RES     
    7883 S2        -115.9621   -33.0896    59.9225 S2            1 RES     
    7884 C1        -114.7454   -34.1610    59.4338 C1            1 RES     
    7885 C1        -114.1571   -33.7109    58.2455 C1            1 RES     
    7886 C0        -114.8809   -32.5077    55.3613 C0            1 RES     
    7887 C0        -115.5602   -33.8575    54.8034 C0            1 RES     
    7888 C0        -115.0671   -35.1947    55.4409 C0            1 RES     
    7889 C0        -116.2361   -35.9781    56.0676 C0            1 RES     
    7890 C0        -115.8050   -37.2139    56.8779 C0            1 RES     
    7891 C0        -117.0564   -37.9745    57.3566 C0            1 RES     
    7892 C0        -116.7306   -39.1068    58.3386 C0            1 RES     
    7893 C0        -118.0063   -39.8461    58.7490 C0            1 RES     
    7894 C0        -115.2509   -33.8471    53.2405 C0            1 RES     
    7895 C0        -115.6615   -34.9275    52.1911 C0            1 RES     
    7896 C0        -114.7486   -36.1845    52.0545 C0            1 RES     
    7897 C0        -114.7900   -36.7674    50.6083 C0            1 RES     
    7898 C0        -113.8239   -37.9501    50.3889 C0            1 RES     
    7899 C0        -113.4691   -38.2123    48.9021 C0            1 RES     
    7900 C0        -114.6584   -38.5125    47.9782 C0            1 RES     
    7901 C0        -114.1752   -38.7969    46.5494 C0            1 RES     
    7902 C0        -112.9751   -31.3776    56.4956 C0            1 RES     
    7903 C0        -112.2806   -30.5960    55.2334 C0            1 RES     
    7904 C0        -112.5064   -31.3264    53.8491 C0            1 RES     
    7905 C0        -111.6682   -30.9140    52.6433 C0            1 RES     
    7906 C0        -111.8401   -31.7874    51.3875 C0            1 RES     
    7907 C0        -113.1914   -31.5666    50.6765 C0            1 RES     
    7908 C0        -113.1535   -32.0126    49.2036 C0            1 RES     
    7909 C0        -112.9890   -33.5112    49.0190 C0            1 RES     
    7910 C0        -112.3766   -29.0059    55.1289 C0            1 RES     
    7911 C0        -111.0765   -28.3851    54.4899 C0            1 RES     
    7912 C0        -110.7919   -26.8603    54.4035 C0            1 RES     
    7913 C0        -111.3247   -26.0551    53.1731 C0            1 RES     
    7914 C0        -110.3024   -24.9239    52.8407 C0            1 RES     
    7915 C0        -110.6156   -24.0124    51.6344 C0            1 RES     
    7916 C0        -109.3730   -23.1424    51.3184 C0            1 RES     
    7917 C0        -109.5920   -22.1549    50.1732 C0            1 RES     
    7918 H4        -113.9644   -28.8249    57.3673 H4            1 RES     
    7919 H5        -113.4474   -26.9772    58.3444 H5            1 RES     
    7920 H4        -113.3069   -34.2052    57.8030 H4            1 RES     
    7921 H6        -115.3499   -31.7188    54.7352 H6            1 RES     
    7922 H6        -113.9219   -32.8320    55.0108 H6            1 RES     
    7923 H6        -116.6624   -33.7785    54.9296 H6            1 RES     
    7924 H6        -114.5650   -35.8459    54.7031 H6            1 RES     
    7925 H6        -114.2765   -35.0096    56.1587 H6            1 RES     
    7926 H6        -116.7908   -35.3080    56.7607 H6            1 RES     
    7927 H6        -116.9177   -36.2881    55.2449 H6            1 RES     
    7928 H6        -115.1758   -37.8961    56.2647 H6            1 RES     
    7929 H6        -115.2106   -36.8702    57.7532 H6            1 RES     
    7930 H6        -117.5785   -38.3917    56.4663 H6            1 RES     
    7931 H6        -117.7431   -37.2675    57.8714 H6            1 RES     
    7932 H6        -116.0257   -39.8321    57.8789 H6            1 RES     
    7933 H6        -116.2593   -38.6755    59.2490 H6            1 RES     
    7934 H6        -118.7359   -39.1426    59.2055 H6            1 RES     
    7935 H6        -118.4753   -40.3253    57.8627 H6            1 RES     
    7936 H6        -117.7664   -40.6353    59.4921 H6            1 RES     
    7937 H6        -115.7300   -32.9122    52.8755 H6            1 RES     
    7938 H6        -114.1559   -33.7241    53.0850 H6            1 RES     
    7939 H6        -116.7386   -35.1870    52.2297 H6            1 RES     
    7940 H6        -115.5063   -34.3806    51.2340 H6            1 RES     
    7941 H6        -113.6921   -35.8739    52.2197 H6            1 RES     
    7942 H6        -115.0152   -36.9543    52.8068 H6            1 RES     
    7943 H6        -115.8200   -37.0605    50.3144 H6            1 RES     
    7944 H6        -114.4611   -35.9692    49.9260 H6            1 RES     
    7945 H6        -112.8524   -37.7177    50.8776 H6            1 RES     
    7946 H6        -114.2390   -38.8620    50.8682 H6            1 RES     
    7947 H6        -112.7647   -39.0728    48.8670 H6            1 RES     
    7948 H6        -112.9328   -37.3229    48.5015 H6            1 RES     
    7949 H6        -115.3401   -37.6364    47.9487 H6            1 RES     
    7950 H6        -115.2157   -39.3970    48.3504 H6            1 RES     
    7951 H6        -113.5123   -39.6890    46.5321 H6            1 RES     
    7952 H6        -113.6140   -37.9281    46.1416 H6            1 RES     
    7953 H6        -115.0435   -38.9942    45.8854 H6            1 RES     
    7954 H6        -112.6225   -30.8703    57.4204 H6            1 RES     
    7955 H6        -112.4491   -32.3596    56.5062 H6            1 RES     
    7956 H6        -111.2110   -30.7650    55.4847 H6            1 RES     
    7957 H6        -113.5623   -31.2190    53.5362 H6            1 RES     
    7958 H6        -112.2180   -32.3889    53.9992 H6            1 RES     
    7959 H6        -111.9539   -29.8978    52.3191 H6            1 RES     
    7960 H6        -110.6008   -30.9727    52.9477 H6            1 RES     
    7961 H6        -111.0454   -31.4430    50.6923 H6            1 RES     
    7962 H6        -111.6595   -32.8637    51.6051 H6            1 RES     
    7963 H6        -113.3962   -30.4756    50.6416 H6            1 RES     
    7964 H6        -114.0225   -32.0507    51.2313 H6            1 RES     
    7965 H6        -112.3215   -31.4880    48.6854 H6            1 RES     
    7966 H6        -114.1045   -31.7102    48.7140 H6            1 RES     
    7967 H6        -112.9566   -33.7506    47.9343 H6            1 RES     
    7968 H6        -113.8663   -34.0028    49.4629 H6            1 RES     
    7969 H6        -112.0575   -33.8856    49.4906 H6            1 RES     
    7970 H6        -113.3222   -28.6845    54.6397 H6            1 RES     
    7971 H6        -112.3359   -28.5873    56.1475 H6            1 RES     
    7972 H6        -110.2626   -28.7764    55.1376 H6            1 RES     
    7973 H6        -110.8347   -28.7384    53.4931 H6            1 RES     
    7974 H6        -109.6882   -26.8730    54.2584 H6            1 RES     
    7975 H6        -110.9602   -26.3239    55.3602 H6            1 RES     
    7976 H6        -112.3476   -25.6667    53.3694 H6            1 RES     
    7977 H6        -111.3626   -26.7083    52.2741 H6            1 RES     
    7978 H6        -109.3403   -25.4324    52.6040 H6            1 RES     
    7979 H6        -110.1461   -24.2806    53.7333 H6            1 RES     
    7980 H6        -111.4898   -23.3684    51.8712 H6            1 RES     
    7981 H6        -110.8496   -24.6239    50.7360 H6            1 RES     
    7982 H6        -108.5273   -23.8094    51.0359 H6            1 RES     
    7983 H6        -109.0734   -22.5639    52.2189 H6            1 RES     
    7984 H6        -110.3823   -21.4224    50.4385 H6            1 RES     
    7985 H6        -109.8713   -22.6850    49.2390 H6            1 RES     
    7986 H6        -108.6476   -21.5953    49.9868 H6            1 RES     
    7987 C0        -109.8882   -40.3688    64.1939 C0            1 RES     
    7988 C1        -110.3832   -39.9000    65.3788 C1            1 RES     
    7989 C1        -111.7292   -39.9275    65.4456 C1            1 RES     
    7990 C1        -112.2537   -40.3400    64.3343 C1            1 RES     
    7991 C1        -111.1991   -40.6329    63.3480 C1            1 RES     
    7992 C1        -111.6345   -39.5506    62.3716 C1            1 RES     
    7993 C1        -112.8932   -39.0450    62.5235 C1            1 RES     
    7994 S2        -113.8727   -39.9214    63.7895 S2            1 RES     
    7995 C1        -113.4099   -37.8322    61.7606 C1            1 RES     
    7996 C1        -112.7425   -37.3504    60.5961 C1            1 RES     
    7997 N3        -113.1842   -36.2501    59.9205 N3            1 RES     
    7998 C1        -114.2608   -35.5329    60.3130 C1            1 RES     
    7999 C1        -114.9506   -35.9284    61.4523 C1            1 RES     
    8000 C1        -114.5324   -37.0856    62.1773 C1            1 RES     
    8001 N3        -115.2808   -37.3639    63.2818 N3            1 RES     
    8002 S2        -116.4137   -36.1552    63.2728 S2            1 RES     
    8003 N3        -116.0255   -35.2618    61.9391 N3            1 RES     
    8004 S2        -112.3483   -39.2386    66.8397 S2            1 RES     
    8005 C1        -110.8034   -38.8804    67.4332 C1            1 RES     
    8006 C1        -109.8300   -39.2637    66.5026 C1            1 RES     
    8007 C0        -109.0115   -41.6668    64.5417 C0            1 RES     
    8008 C0        -108.6465   -42.7025    65.7201 C0            1 RES     
    8009 C0        -108.1995   -42.0756    67.0783 C0            1 RES     
    8010 C0        -109.1116   -42.5349    68.2316 C0            1 RES     
    8011 C0        -108.8515   -41.8150    69.5671 C0            1 RES     
    8012 C0        -109.7388   -42.4339    70.6639 C0            1 RES     
    8013 C0        -109.6956   -41.6514    71.9824 C0            1 RES     
    8014 C0        -110.5660   -42.3331    73.0408 C0            1 RES     
    8015 C0        -107.4761   -43.6006    65.1181 C0            1 RES     
    8016 C0        -106.7214   -44.7668    65.8302 C0            1 RES     
    8017 C0        -105.5362   -44.3911    66.7717 C0            1 RES     
    8018 C0        -104.4638   -45.5225    66.8212 C0            1 RES     
    8019 C0        -103.2181   -45.1596    67.6560 C0            1 RES     
    8020 C0        -101.9621   -46.0062    67.3226 C0            1 RES     
    8021 C0        -102.1161   -47.5233    67.5038 C0            1 RES     
    8022 C0        -100.7978   -48.2426    67.1869 C0            1 RES     
    8023 C0        -108.7917   -39.4009    63.5350 C0            1 RES     
    8024 C0        -107.8209   -39.7221    62.2540 C0            1 RES     
    8025 C0        -106.8608   -40.9554    62.4949 C0            1 RES     
    8026 C0        -105.6881   -41.1833    61.5466 C0            1 RES     
    8027 C0        -104.7164   -42.3058    61.9531 C0            1 RES     
    8028 C0        -105.3062   -43.7179    61.7574 C0            1 RES     
    8029 C0        -104.2125   -44.7966    61.6570 C0            1 RES     
    8030 C0        -103.4318   -45.0022    62.9435 C0            1 RES     
    8031 C0        -108.4103   -39.6636    60.7716 C0            1 RES     
    8032 C0        -107.3390   -39.1427    59.7396 C0            1 RES     
    8033 C0        -107.6495   -38.8166    58.2526 C0            1 RES     
    8034 C0        -107.5645   -39.9599    57.1889 C0            1 RES     
    8035 C0        -107.0635   -39.3486    55.8433 C0            1 RES     
    8036 C0        -106.8790   -40.3098    54.6490 C0            1 RES     
    8037 C0        -106.1378   -39.5674    53.5087 C0            1 RES     
    8038 C0        -105.9530   -40.4104    52.2478 C0            1 RES     
    8039 H4        -110.9587   -39.1437    61.6660 H4            1 RES     
    8040 H5        -111.8777   -37.8592    60.2026 H5            1 RES     
    8041 H4        -108.7823   -39.0535    66.6485 H4            1 RES     
    8042 H6        -109.2463   -42.3379    63.6879 H6            1 RES     
    8043 H6        -108.0069   -41.2946    64.5422 H6            1 RES     
    8044 H6        -109.5232   -43.3642    65.8953 H6            1 RES     
    8045 H6        -107.1563   -42.3357    67.3323 H6            1 RES     
    8046 H6        -108.1553   -40.9950    67.0066 H6            1 RES     
    8047 H6        -110.1712   -42.3406    67.9546 H6            1 RES     
    8048 H6        -108.9694   -43.6305    68.3621 H6            1 RES     
    8049 H6        -107.7844   -41.9025    69.8686 H6            1 RES     
    8050 H6        -109.0993   -40.7380    69.4397 H6            1 RES     
    8051 H6        -109.4041   -43.4808    70.8405 H6            1 RES     
    8052 H6        -110.7949   -42.4530    70.3165 H6            1 RES     
    8053 H6        -108.6538   -41.5828    72.3622 H6            1 RES     
    8054 H6        -110.0833   -40.6235    71.8093 H6            1 RES     
    8055 H6        -111.6151   -42.4238    72.6847 H6            1 RES     
    8056 H6        -110.1738   -43.3482    73.2659 H6            1 RES     
    8057 H6        -110.5629   -41.7371    73.9775 H6            1 RES     
    8058 H6        -107.9319   -44.0743    64.2210 H6            1 RES     
    8059 H6        -106.6610   -42.9395    64.7481 H6            1 RES     
    8060 H6        -107.4020   -45.5159    66.2825 H6            1 RES     
    8061 H6        -106.2280   -45.2727    64.9701 H6            1 RES     
    8062 H6        -105.0138   -43.5046    66.3459 H6            1 RES     
    8063 H6        -105.8999   -44.1360    67.7877 H6            1 RES     
    8064 H6        -104.8953   -46.4800    67.1819 H6            1 RES     
    8065 H6        -104.1101   -45.6812    65.7914 H6            1 RES     
    8066 H6        -102.9245   -44.1114    67.4287 H6            1 RES     
    8067 H6        -103.4657   -45.2194    68.7371 H6            1 RES     
    8068 H6        -101.1311   -45.6524    67.9724 H6            1 RES     
    8069 H6        -101.6698   -45.8095    66.2667 H6            1 RES     
    8070 H6        -102.8975   -47.9054    66.8134 H6            1 RES     
    8071 H6        -102.4076   -47.7540    68.5494 H6            1 RES     
    8072 H6         -99.9950   -47.9087    67.8795 H6            1 RES     
    8073 H6        -100.4760   -48.0365    66.1429 H6            1 RES     
    8074 H6        -100.9249   -49.3400    67.3027 H6            1 RES     
    8075 H6        -109.2992   -38.4353    63.3188 H6            1 RES     
    8076 H6        -108.0686   -39.1532    64.3454 H6            1 RES     
    8077 H6        -107.1652   -38.8255    62.2970 H6            1 RES     
    8078 H6        -107.4464   -41.8942    62.4850 H6            1 RES     
    8079 H6        -106.3596   -40.7825    63.4713 H6            1 RES     
    8080 H6        -106.0637   -41.4842    60.5528 H6            1 RES     
    8081 H6        -105.1071   -40.2365    61.5066 H6            1 RES     
    8082 H6        -103.8619   -42.2088    61.2503 H6            1 RES     
    8083 H6        -104.3267   -42.1610    62.9854 H6            1 RES     
    8084 H6        -105.8303   -43.7475    60.7786 H6            1 RES     
    8085 H6        -106.0486   -43.9577    62.5476 H6            1 RES     
    8086 H6        -103.5069   -44.5250    60.8419 H6            1 RES     
    8087 H6        -104.6884   -45.7642    61.3875 H6            1 RES     
    8088 H6        -102.6559   -45.7822    62.7867 H6            1 RES     
    8089 H6        -104.1356   -45.3537    63.7113 H6            1 RES     
    8090 H6        -102.9318   -44.0697    63.2768 H6            1 RES     
    8091 H6        -108.8897   -40.6249    60.4837 H6            1 RES     
    8092 H6        -109.1606   -38.8576    60.7271 H6            1 RES     
    8093 H6        -107.0230   -38.1683    60.1704 H6            1 RES     
    8094 H6        -106.4288   -39.7298    59.6788 H6            1 RES     
    8095 H6        -106.7846   -38.1591    58.0096 H6            1 RES     
    8096 H6        -108.5513   -38.1843    58.1174 H6            1 RES     
    8097 H6        -108.5428   -40.4780    57.0884 H6            1 RES     
    8098 H6        -106.7991   -40.7081    57.4899 H6            1 RES     
    8099 H6        -106.0586   -38.9163    56.0519 H6            1 RES     
    8100 H6        -107.7386   -38.5244    55.5273 H6            1 RES     
    8101 H6        -107.8725   -40.6644    54.2993 H6            1 RES     
    8102 H6        -106.2663   -41.1878    54.9482 H6            1 RES     
    8103 H6        -105.1277   -39.2680    53.8692 H6            1 RES     
    8104 H6        -106.6938   -38.6467    53.2284 H6            1 RES     
    8105 H6        -106.9380   -40.6756    51.8108 H6            1 RES     
    8106 H6        -105.3800   -41.3350    52.4683 H6            1 RES     
    8107 H6        -105.3851   -39.8206    51.4932 H6            1 RES     
    8108 C0        -108.0380   -32.9133    73.8779 C0            1 RES     
    8109 C1        -109.2831   -32.3527    73.9436 C1            1 RES     
    8110 C1        -110.2544   -33.2383    74.2419 C1            1 RES     
    8111 C1        -109.7876   -34.4438    74.3389 C1            1 RES     
    8112 C1        -108.3381   -34.4543    74.0752 C1            1 RES     
    8113 C1        -108.4430   -35.3147    72.8250 C1            1 RES     
    8114 C1        -109.6021   -36.0127    72.6451 C1            1 RES     
    8115 S2        -110.7395   -35.8976    74.0677 S2            1 RES     
    8116 C1        -109.9428   -36.7610    71.3629 C1            1 RES     
    8117 C1        -108.9402   -37.0688    70.3966 C1            1 RES     
    8118 N3        -109.2405   -37.7172    69.2340 N3            1 RES     
    8119 C1        -110.4978   -38.0914    68.9077 C1            1 RES     
    8120 C1        -111.5323   -37.8062    69.7901 C1            1 RES     
    8121 C1        -111.2578   -37.1461    71.0264 C1            1 RES     
    8122 N3        -112.3552   -36.9114    71.7999 N3            1 RES     
    8123 S2        -113.5871   -37.5489    70.8940 S2            1 RES     
    8124 N3        -112.8277   -38.1186    69.5425 N3            1 RES     
    8125 S2        -111.7956   -32.5869    74.1996 S2            1 RES     
    8126 C1        -111.2120   -31.0522    73.7858 C1            1 RES     
    8127 C1        -109.8199   -31.0905    73.6395 C1            1 RES     
    8128 C0        -107.1599   -32.2227    75.0297 C0            1 RES     
    8129 C0        -107.2453   -31.2611    76.3191 C0            1 RES     
    8130 C0        -107.9967   -29.9066    76.1235 C0            1 RES     
    8131 C0        -109.1716   -29.7730    77.1108 C0            1 RES     
    8132 C0        -110.0739   -28.5521    76.8566 C0            1 RES     
    8133 C0        -111.1381   -28.4615    77.9669 C0            1 RES     
    8134 C0        -112.2046   -27.3947    77.6895 C0            1 RES     
    8135 C0        -113.2102   -27.3276    78.8412 C0            1 RES     
    8136 C0        -105.7273   -30.9939    76.7228 C0            1 RES     
    8137 C0        -105.2064   -30.1116    77.9005 C0            1 RES     
    8138 C0        -105.0938   -28.5754    77.6565 C0            1 RES     
    8139 C0        -103.9576   -27.9411    78.5164 C0            1 RES     
    8140 C0        -103.7326   -26.4406    78.2365 C0            1 RES     
    8141 C0        -102.3384   -25.9165    78.6687 C0            1 RES     
    8142 C0        -101.9977   -26.0840    80.1567 C0            1 RES     
    8143 C0        -100.6171   -25.4891    80.4658 C0            1 RES     
    8144 C0        -107.2248   -32.5038    72.5573 C0            1 RES     
    8145 C0        -105.6428   -32.7856    72.2342 C0            1 RES     
    8146 C0        -104.6648   -32.1054    73.2743 C0            1 RES     
    8147 C0        -103.1800   -31.9991    72.9417 C0            1 RES     
    8148 C0        -102.3362   -31.1791    73.9342 C0            1 RES     
    8149 C0        -102.1077   -31.9029    75.2774 C0            1 RES     
    8150 C0        -100.8841   -31.3540    76.0333 C0            1 RES     
    8151 C0        -101.0514   -29.9243    76.5181 C0            1 RES     
    8152 C0        -105.1675   -34.2411    71.7824 C0            1 RES     
    8153 C0        -103.9784   -34.1707    70.7504 C0            1 RES     
    8154 C0        -103.4042   -35.4031    69.9987 C0            1 RES     
    8155 C0        -102.2712   -36.2452    70.6718 C0            1 RES     
    8156 C0        -101.3217   -36.7807    69.5552 C0            1 RES     
    8157 C0        -100.1063   -37.6242    69.9974 C0            1 RES     
    8158 C0         -99.1631   -37.8312    68.7856 C0            1 RES     
    8159 C0         -97.9502   -38.7071    69.0962 C0            1 RES     
    8160 H4        -107.6882   -35.2994    72.0831 H4            1 RES     
    8161 H5        -107.9070   -36.8154    70.5699 H5            1 RES     
    8162 H4        -109.2548   -30.2366    73.3012 H4            1 RES     
    8163 H6        -106.5532   -33.0770    75.3991 H6            1 RES     
    8164 H6        -106.5955   -31.4817    74.5004 H6            1 RES     
    8165 H6        -107.7213   -31.8249    77.1514 H6            1 RES     
    8166 H6        -107.3275   -29.0378    76.2563 H6            1 RES     
    8167 H6        -108.3203   -29.7917    75.0956 H6            1 RES     
    8168 H6        -109.8139   -30.6778    77.0338 H6            1 RES     
    8169 H6        -108.7483   -29.7191    78.1382 H6            1 RES     
    8170 H6        -109.4808   -27.6111    76.8421 H6            1 RES     
    8171 H6        -110.5661   -28.6790    75.8670 H6            1 RES     
    8172 H6        -110.6264   -28.2357    78.9293 H6            1 RES     
    8173 H6        -111.6560   -29.4408    78.0618 H6            1 RES     
    8174 H6        -111.7347   -26.3960    77.5627 H6            1 RES     
    8175 H6        -112.7485   -27.6569    76.7554 H6            1 RES     
    8176 H6        -113.6915   -28.3173    78.9978 H6            1 RES     
    8177 H6        -112.6998   -27.0237    79.7805 H6            1 RES     
    8178 H6        -114.0020   -26.5837    78.6124 H6            1 RES     
    8179 H6        -105.3212   -32.0069    76.9368 H6            1 RES     
    8180 H6        -105.1747   -30.6115    75.8358 H6            1 RES     
    8181 H6        -105.6830   -30.3536    78.8717 H6            1 RES     
    8182 H6        -104.1478   -30.4466    77.9804 H6            1 RES     
    8183 H6        -104.7946   -28.4066    76.5973 H6            1 RES     
    8184 H6        -106.0648   -28.0711    77.8369 H6            1 RES     
    8185 H6        -104.1271   -28.1022    79.6019 H6            1 RES     
    8186 H6        -103.0206   -28.4499    78.2443 H6            1 RES     
    8187 H6        -103.7747   -26.2683    77.1386 H6            1 RES     
    8188 H6        -104.5462   -25.8493    78.7075 H6            1 RES     
    8189 H6        -102.2865   -24.8354    78.4109 H6            1 RES     
    8190 H6        -101.5594   -26.4418    78.0719 H6            1 RES     
    8191 H6        -101.9796   -27.1633    80.4175 H6            1 RES     
    8192 H6        -102.7573   -25.5696    80.7813 H6            1 RES     
    8193 H6        -100.6037   -24.3995    80.2463 H6            1 RES     
    8194 H6         -99.8282   -25.9845    79.8589 H6            1 RES     
    8195 H6        -100.3721   -25.6320    81.5398 H6            1 RES     
    8196 H6        -107.8030   -32.8873    71.6881 H6            1 RES     
    8197 H6        -107.3076   -31.3961    72.4721 H6            1 RES     
    8198 H6        -105.5416   -32.1897    71.3013 H6            1 RES     
    8199 H6        -104.7218   -32.6346    74.2443 H6            1 RES     
    8200 H6        -104.9767   -31.0422    73.3561 H6            1 RES     
    8201 H6        -102.7223   -33.0040    72.9485 H6            1 RES     
    8202 H6        -103.0986   -31.5076    71.9481 H6            1 RES     
    8203 H6        -101.3441   -31.0771    73.4456 H6            1 RES     
    8204 H6        -102.7500   -30.1566    74.0818 H6            1 RES     
    8205 H6        -101.8631   -32.9656    75.0670 H6            1 RES     
    8206 H6        -103.0224   -31.8830    75.9066 H6            1 RES     
    8207 H6         -99.9916   -31.4130    75.3731 H6            1 RES     
    8208 H6        -100.6948   -31.9959    76.9208 H6            1 RES     
    8209 H6        -100.1255   -29.5978    77.0387 H6            1 RES     
    8210 H6        -101.8842   -29.9078    77.2354 H6            1 RES     
    8211 H6        -101.2501   -29.2248    75.6804 H6            1 RES     
    8212 H6        -104.9716   -34.8976    72.6583 H6            1 RES     
    8213 H6        -105.9618   -34.6900    71.1642 H6            1 RES     
    8214 H6        -104.3810   -33.5234    69.9417 H6            1 RES     
    8215 H6        -103.0887   -33.6587    71.1012 H6            1 RES     
    8216 H6        -102.8933   -34.8963    69.1492 H6            1 RES     
    8217 H6        -104.1846   -36.0431    69.5376 H6            1 RES     
    8218 H6        -102.7021   -37.0576    71.2964 H6            1 RES     
    8219 H6        -101.6449   -35.5959    71.3218 H6            1 RES     
    8220 H6        -100.9067   -35.8838    69.0418 H6            1 RES     
    8221 H6        -101.9036   -37.3688    68.8133 H6            1 RES     
    8222 H6        -100.4554   -38.6040    70.3888 H6            1 RES     
    8223 H6         -99.5378   -37.0979    70.7947 H6            1 RES     
    8224 H6         -98.7887   -36.8392    68.4456 H6            1 RES     
    8225 H6         -99.7193   -38.2994    67.9449 H6            1 RES     
    8226 H6         -98.2729   -39.7319    69.3738 H6            1 RES     
    8227 H6         -97.3441   -38.2702    69.9168 H6            1 RES     
    8228 H6         -97.3084   -38.7782    68.1891 H6            1 RES     
    8229 C0        -115.4303   -23.8047    69.9821 C0            1 RES     
    8230 C1        -116.5473   -24.5478    69.7196 C1            1 RES     
    8231 C1        -117.0824   -25.1173    70.8178 C1            1 RES     
    8232 C1        -116.3711   -24.8769    71.8746 C1            1 RES     
    8233 C1        -115.1926   -24.0647    71.5247 C1            1 RES     
    8234 C1        -114.1824   -25.1353    71.9088 C1            1 RES     
    8235 C1        -114.6247   -26.1515    72.7054 C1            1 RES     
    8236 S2        -116.3339   -25.9098    73.2976 S2            1 RES     
    8237 C1        -113.8009   -27.3937    73.0190 C1            1 RES     
    8238 C1        -112.3945   -27.4279    72.7855 C1            1 RES     
    8239 N3        -111.6525   -28.5444    73.0405 N3            1 RES     
    8240 C1        -112.1932   -29.6922    73.5071 C1            1 RES     
    8241 C1        -113.5621   -29.7428    73.7386 C1            1 RES     
    8242 C1        -114.3715   -28.5900    73.5028 C1            1 RES     
    8243 N3        -115.6990   -28.7679    73.7553 N3            1 RES     
    8244 S2        -115.7695   -30.3438    74.2612 S2            1 RES     
    8245 N3        -114.2003   -30.8531    74.1822 N3            1 RES     
    8246 S2        -118.3735   -26.1305    70.4897 S2            1 RES     
    8247 C1        -118.2780   -25.8296    68.8261 C1            1 RES     
    8248 C1        -117.2015   -24.9770    68.5527 C1            1 RES     
    8249 C0        -115.7773   -22.2914    69.5771 C0            1 RES     
    8250 C0        -116.9819   -21.3117    69.1487 C0            1 RES     
    8251 C0        -117.8866   -21.8003    67.9738 C0            1 RES     
    8252 C0        -119.3620   -21.8921    68.4070 C0            1 RES     
    8253 C0        -120.2869   -22.5434    67.3630 C0            1 RES     
    8254 C0        -121.7445   -22.4765    67.8573 C0            1 RES     
    8255 C0        -122.7131   -23.2771    66.9779 C0            1 RES     
    8256 C0        -124.1465   -23.1432    67.4972 C0            1 RES     
    8257 C0        -116.2671   -19.9421    68.7588 C0            1 RES     
    8258 C0        -116.9504   -18.6330    68.2525 C0            1 RES     
    8259 C0        -117.2886   -18.5365    66.7331 C0            1 RES     
    8260 C0        -117.2556   -17.0598    66.2322 C0            1 RES     
    8261 C0        -117.4801   -16.9157    64.7126 C0            1 RES     
    8262 C0        -116.9641   -15.5791    64.1188 C0            1 RES     
    8263 C0        -117.5764   -14.3051    64.7191 C0            1 RES     
    8264 C0        -117.0204   -13.0567    64.0205 C0            1 RES     
    8265 C0        -114.2035   -24.1321    69.0018 C0            1 RES     
    8266 C0        -112.7961   -23.3047    68.8569 C0            1 RES     
    8267 C0        -113.0010   -21.8032    68.4048 C0            1 RES     
    8268 C0        -111.7988   -21.0010    67.9172 C0            1 RES     
    8269 C0        -112.1199   -19.6086    67.3449 C0            1 RES     
    8270 C0        -112.5167   -18.5849    68.4289 C0            1 RES     
    8271 C0        -112.3274   -17.1326    67.9548 C0            1 RES     
    8272 C0        -113.2686   -16.7238    66.8349 C0            1 RES     
    8273 C0        -111.6503   -23.4805    69.9545 C0            1 RES     
    8274 C0        -110.2128   -23.3852    69.3156 C0            1 RES     
    8275 C0        -108.8963   -23.6782    70.0867 C0            1 RES     
    8276 C0        -108.2067   -22.5217    70.8822 C0            1 RES     
    8277 C0        -106.6613   -22.7281    70.8169 C0            1 RES     
    8278 C0        -105.7720   -21.6793    71.5193 C0            1 RES     
    8279 C0        -104.2938   -21.9167    71.1200 C0            1 RES     
    8280 C0        -103.3136   -20.9674    71.8077 C0            1 RES     
    8281 H4        -113.2058   -25.1403    71.5005 H4            1 RES     
    8282 H5        -111.8722   -26.5590    72.4195 H5            1 RES     
    8283 H4        -116.9141   -24.7205    67.5454 H4            1 RES     
    8284 H6        -115.2648   -21.7163    70.3777 H6            1 RES     
    8285 H6        -115.3317   -22.1856    68.6086 H6            1 RES     
    8286 H6        -117.6168   -21.1185    70.0413 H6            1 RES     
    8287 H6        -117.8207   -21.1346    67.0947 H6            1 RES     
    8288 H6        -117.5250   -22.7415    67.5763 H6            1 RES     
    8289 H6        -119.4300   -22.5040    69.3333 H6            1 RES     
    8290 H6        -119.7158   -20.8613    68.6303 H6            1 RES     
    8291 H6        -120.2106   -22.0261    66.3813 H6            1 RES     
    8292 H6        -119.9775   -23.6040    67.2327 H6            1 RES     
    8293 H6        -122.0601   -21.4094    67.8838 H6            1 RES     
    8294 H6        -121.8035   -22.8895    68.8880 H6            1 RES     
    8295 H6        -122.6753   -22.9177    65.9274 H6            1 RES     
    8296 H6        -122.4239   -24.3508    67.0008 H6            1 RES     
    8297 H6        -124.2139   -23.4882    68.5518 H6            1 RES     
    8298 H6        -124.4777   -22.0837    67.4439 H6            1 RES     
    8299 H6        -124.8338   -23.7599    66.8808 H6            1 RES     
    8300 H6        -115.7410   -19.6362    69.6897 H6            1 RES     
    8301 H6        -115.4783   -20.1441    68.0003 H6            1 RES     
    8302 H6        -117.7896   -18.3010    68.8964 H6            1 RES     
    8303 H6        -116.1361   -17.8869    68.3918 H6            1 RES     
    8304 H6        -116.4925   -19.0630    66.1596 H6            1 RES     
    8305 H6        -118.2637   -19.0156    66.5108 H6            1 RES     
    8306 H6        -117.9801   -16.4241    66.7837 H6            1 RES     
    8307 H6        -116.2465   -16.6701    66.4337 H6            1 RES     
    8308 H6        -116.9001   -17.7049    64.1859 H6            1 RES     
    8309 H6        -118.5555   -17.0682    64.4803 H6            1 RES     
    8310 H6        -117.1684   -15.5913    63.0252 H6            1 RES     
    8311 H6        -115.8602   -15.5318    64.2537 H6            1 RES     
    8312 H6        -117.3256   -14.2422    65.7991 H6            1 RES     
    8313 H6        -118.6796   -14.3206    64.6002 H6            1 RES     
    8314 H6        -117.2783   -13.0673    62.9393 H6            1 RES     
    8315 H6        -115.9145   -13.0061    64.1225 H6            1 RES     
    8316 H6        -117.4548   -12.1406    64.4742 H6            1 RES     
    8317 H6        -113.9334   -25.1985    69.1650 H6            1 RES     
    8318 H6        -114.6176   -24.1112    67.9678 H6            1 RES     
    8319 H6        -112.3732   -23.8244    67.9699 H6            1 RES     
    8320 H6        -113.4403   -21.2181    69.2348 H6            1 RES     
    8321 H6        -113.6612   -21.8272    67.5114 H6            1 RES     
    8322 H6        -111.1126   -20.8060    68.7601 H6            1 RES     
    8323 H6        -111.3141   -21.5908    67.1093 H6            1 RES     
    8324 H6        -111.1647   -19.2585    66.8994 H6            1 RES     
    8325 H6        -112.8766   -19.6612    66.5306 H6            1 RES     
    8326 H6        -111.8249   -18.6990    69.2902 H6            1 RES     
    8327 H6        -113.5489   -18.7663    68.7959 H6            1 RES     
    8328 H6        -111.2773   -16.9936    67.6173 H6            1 RES     
    8329 H6        -112.5024   -16.4503    68.8146 H6            1 RES     
    8330 H6        -113.0611   -15.6726    66.5404 H6            1 RES     
    8331 H6        -114.2964   -16.7863    67.2200 H6            1 RES     
    8332 H6        -113.1520   -17.3699    65.9409 H6            1 RES     
    8333 H6        -111.8082   -22.8037    70.8227 H6            1 RES     
    8334 H6        -111.6609   -24.5256    70.3040 H6            1 RES     
    8335 H6        -110.2371   -24.1581    68.5174 H6            1 RES     
    8336 H6        -109.9949   -22.4565    68.7988 H6            1 RES     
    8337 H6        -108.2055   -23.8667    69.2342 H6            1 RES     
    8338 H6        -108.9230   -24.6259    70.6633 H6            1 RES     
    8339 H6        -108.5911   -22.4765    71.9243 H6            1 RES     
    8340 H6        -108.4069   -21.5449    70.3903 H6            1 RES     
    8341 H6        -106.3873   -22.6947    69.7380 H6            1 RES     
    8342 H6        -106.3963   -23.7321    71.2127 H6            1 RES     
    8343 H6        -105.8946   -21.7646    72.6206 H6            1 RES     
    8344 H6        -106.0575   -20.6529    71.2019 H6            1 RES     
    8345 H6        -104.1895   -21.7758    70.0203 H6            1 RES     
    8346 H6        -103.9945   -22.9582    71.3668 H6            1 RES     
    8347 H6        -103.3313   -21.1210    72.9066 H6            1 RES     
    8348 H6        -103.5542   -19.9096    71.5736 H6            1 RES     
    8349 H6        -102.2829   -21.1789    71.4435 H6            1 RES     
    8350 C0        -121.5666   -30.5440    61.6325 C0            1 RES     
    8351 C1        -121.9122   -31.5957    62.4345 C1            1 RES     
    8352 C1        -122.7493   -31.2546    63.4344 C1            1 RES     
    8353 C1        -122.9887   -29.9806    63.4426 C1            1 RES     
    8354 C1        -122.2502   -29.3139    62.3558 C1            1 RES     
    8355 C1        -121.3849   -28.4767    63.2857 C1            1 RES     
    8356 C1        -121.8076   -28.3423    64.5765 C1            1 RES     
    8357 S2        -123.4541   -29.0710    64.8740 S2            1 RES     
    8358 C1        -120.9661   -27.7056    65.6749 C1            1 RES     
    8359 C1        -119.8276   -26.9046    65.3652 C1            1 RES     
    8360 N3        -119.0537   -26.3505    66.3430 N3            1 RES     
    8361 C1        -119.2943   -26.5355    67.6604 C1            1 RES     
    8362 C1        -120.3742   -27.3226    68.0405 C1            1 RES     
    8363 C1        -121.2203   -27.9052    67.0483 C1            1 RES     
    8364 N3        -122.2371   -28.6647    67.5452 N3            1 RES     
    8365 S2        -122.0153   -28.5506    69.1830 S2            1 RES     
    8366 N3        -120.6826   -27.5867    69.3335 N3            1 RES     
    8367 S2        -123.0768   -32.5072    64.4951 S2            1 RES     
    8368 C1        -122.1012   -33.5882    63.6308 C1            1 RES     
    8369 C1        -121.4958   -32.9324    62.5520 C1            1 RES     
    8370 C0        -122.1188   -30.8825    60.1645 C0            1 RES     
    8371 C0        -123.0593   -31.8969    59.3393 C0            1 RES     
    8372 C0        -122.7911   -33.4198    59.5552 C0            1 RES     
    8373 C0        -124.0538   -34.1420    60.0621 C0            1 RES     
    8374 C0        -123.8200   -35.6060    60.4765 C0            1 RES     
    8375 C0        -125.1662   -36.2525    60.8548 C0            1 RES     
    8376 C0        -125.0088   -37.6481    61.4712 C0            1 RES     
    8377 C0        -126.3781   -38.2517    61.7918 C0            1 RES     
    8378 C0        -122.8258   -31.5092    57.8115 C0            1 RES     
    8379 C0        -123.4757   -32.1777    56.5595 C0            1 RES     
    8380 C0        -122.8162   -33.4812    56.0133 C0            1 RES     
    8381 C0        -123.0306   -33.6300    54.4756 C0            1 RES     
    8382 C0        -122.3092   -34.8492    53.8645 C0            1 RES     
    8383 C0        -122.0775   -34.7481    52.3342 C0            1 RES     
    8384 C0        -123.3431   -34.5839    51.4801 C0            1 RES     
    8385 C0        -122.9867   -34.5409    49.9879 C0            1 RES     
    8386 C0        -119.9877   -30.4357    61.3706 C0            1 RES     
    8387 C0        -119.2205   -29.4630    60.2974 C0            1 RES     
    8388 C0        -119.6402   -29.7383    58.7977 C0            1 RES     
    8389 C0        -118.7971   -29.1545    57.6687 C0            1 RES     
    8390 C0        -119.1841   -29.6094    56.2499 C0            1 RES     
    8391 C0        -120.5033   -28.9833    55.7519 C0            1 RES     
    8392 C0        -120.6159   -29.0082    54.2168 C0            1 RES     
    8393 C0        -120.7379   -30.4046    53.6318 C0            1 RES     
    8394 C0        -119.0279   -27.9119    60.6222 C0            1 RES     
    8395 C0        -117.6668   -27.3619    60.0486 C0            1 RES     
    8396 C0        -117.1115   -25.9401    60.3379 C0            1 RES     
    8397 C0        -117.5437   -24.7523    59.4169 C0            1 RES     
    8398 C0        -116.3476   -23.7571    59.2976 C0            1 RES     
    8399 C0        -116.5435   -22.5112    58.4068 C0            1 RES     
    8400 C0        -115.1782   -21.8042    58.2141 C0            1 RES     
    8401 C0        -115.2649   -20.5184    57.3932 C0            1 RES     
    8402 H4        -120.4504   -28.0935    62.9691 H4            1 RES     
    8403 H5        -119.5586   -26.6956    64.3426 H5            1 RES     
    8404 H4        -120.7721   -33.4190    61.9175 H4            1 RES     
    8405 H6        -122.4635   -29.8863    59.8136 H6            1 RES     
    8406 H6        -121.2528   -31.2511    59.6527 H6            1 RES     
    8407 H6        -124.1213   -31.6757    59.5848 H6            1 RES     
    8408 H6        -122.4516   -33.9168    58.6288 H6            1 RES     
    8409 H6        -121.9477   -33.5710    60.2188 H6            1 RES     
    8410 H6        -124.4435   -33.6060    60.9554 H6            1 RES     
    8411 H6        -124.8180   -34.0982    59.2549 H6            1 RES     
    8412 H6        -123.3556   -36.1875    59.6497 H6            1 RES     
    8413 H6        -123.1328   -35.6179    61.3512 H6            1 RES     
    8414 H6        -125.7965   -36.3179    59.9396 H6            1 RES     
    8415 H6        -125.6869   -35.6110    61.5990 H6            1 RES     
    8416 H6        -124.4709   -38.3251    60.7734 H6            1 RES     
    8417 H6        -124.4248   -37.5666    62.4142 H6            1 RES     
    8418 H6        -126.9444   -37.5906    62.4831 H6            1 RES     
    8419 H6        -126.9676   -38.3857    60.8593 H6            1 RES     
    8420 H6        -126.2531   -39.2428    62.2765 H6            1 RES     
    8421 H6        -123.1415   -30.4445    57.7507 H6            1 RES     
    8422 H6        -121.7352   -31.5298    57.5914 H6            1 RES     
    8423 H6        -124.5791   -32.2573    56.6299 H6            1 RES     
    8424 H6        -123.2671   -31.4225    55.7686 H6            1 RES     
    8425 H6        -121.7142   -33.4057    56.1540 H6            1 RES     
    8426 H6        -123.1846   -34.3731    56.5597 H6            1 RES     
    8427 H6        -124.1093   -33.6581    54.2135 H6            1 RES     
    8428 H6        -122.5927   -32.7406    53.9982 H6            1 RES     
    8429 H6        -121.2900   -34.9225    54.3033 H6            1 RES     
    8430 H6        -122.8620   -35.7766    54.1251 H6            1 RES     
    8431 H6        -121.5454   -35.6696    52.0091 H6            1 RES     
    8432 H6        -121.4062   -33.8836    52.1318 H6            1 RES     
    8433 H6        -123.8530   -33.6337    51.7452 H6            1 RES     
    8434 H6        -124.0354   -35.4326    51.6586 H6            1 RES     
    8435 H6        -122.5002   -35.4903    49.6754 H6            1 RES     
    8436 H6        -122.2951   -33.6980    49.7707 H6            1 RES     
    8437 H6        -123.9062   -34.4031    49.3801 H6            1 RES     
    8438 H6        -119.5057   -30.2666    62.3584 H6            1 RES     
    8439 H6        -119.6510   -31.4554    61.0743 H6            1 RES     
    8440 H6        -118.1897   -29.8676    60.3939 H6            1 RES     
    8441 H6        -120.6717   -29.3774    58.6246 H6            1 RES     
    8442 H6        -119.5451   -30.8335    58.6367 H6            1 RES     
    8443 H6        -118.9061   -28.0558    57.6501 H6            1 RES     
    8444 H6        -117.7457   -29.4689    57.8453 H6            1 RES     
    8445 H6        -118.3727   -29.2229    55.5976 H6            1 RES     
    8446 H6        -119.1943   -30.7186    56.1603 H6            1 RES     
    8447 H6        -120.5058   -27.9064    56.0232 H6            1 RES     
    8448 H6        -121.3826   -29.4577    56.2363 H6            1 RES     
    8449 H6        -119.7265   -28.5057    53.7781 H6            1 RES     
    8450 H6        -121.5169   -28.4312    53.9151 H6            1 RES     
    8451 H6        -120.8001   -30.3392    52.5242 H6            1 RES     
    8452 H6        -121.6691   -30.8481    54.0120 H6            1 RES     
    8453 H6        -119.8702   -31.0416    53.8992 H6            1 RES     
    8454 H6        -119.9199   -27.3179    60.3253 H6            1 RES     
    8455 H6        -118.8641   -27.8013    61.7064 H6            1 RES     
    8456 H6        -116.9095   -28.0439    60.4918 H6            1 RES     
    8457 H6        -117.5402   -27.4630    58.9760 H6            1 RES     
    8458 H6        -116.0367   -26.0935    60.0914 H6            1 RES     
    8459 H6        -117.1341   -25.6666    61.4131 H6            1 RES     
    8460 H6        -118.4678   -24.2701    59.8034 H6            1 RES     
    8461 H6        -117.7423   -25.1184    58.3860 H6            1 RES     
    8462 H6        -115.5071   -24.3320    58.8466 H6            1 RES     
    8463 H6        -116.0348   -23.4180    60.3086 H6            1 RES     
    8464 H6        -117.2728   -21.8223    58.8851 H6            1 RES     
    8465 H6        -116.9269   -22.8058    57.4058 H6            1 RES     
    8466 H6        -114.4832   -22.4975    57.6887 H6            1 RES     
    8467 H6        -114.7363   -21.5521    59.2024 H6            1 RES     
    8468 H6        -115.8942   -19.7673    57.9141 H6            1 RES     
    8469 H6        -115.6795   -20.7187    56.3834 H6            1 RES     
    8470 H6        -114.2434   -20.0922    57.2718 H6            1 RES     
    8471 C0        -118.2514   -41.5733    66.1216 C0            1 RES     
    8472 C1        -118.5968   -41.3728    67.4290 C1            1 RES     
    8473 C1        -119.9204   -41.1962    67.6126 C1            1 RES     
    8474 C1        -120.5624   -41.1961    66.4864 C1            1 RES     
    8475 C1        -119.6261   -41.3764    65.3632 C1            1 RES     
    8476 C1        -119.9001   -40.0115    64.7496 C1            1 RES     
    8477 C1        -121.0363   -39.3675    65.1462 C1            1 RES     
    8478 S2        -122.1005   -40.3843    66.2250 S2            1 RES     
    8479 C1        -121.3563   -37.9242    64.7794 C1            1 RES     
    8480 C1        -120.6662   -37.2579    63.7242 C1            1 RES     
    8481 N3        -120.9292   -35.9575    63.4047 N3            1 RES     
    8482 C1        -121.8366   -35.2088    64.0707 C1            1 RES     
    8483 C1        -122.5339   -35.7827    65.1264 C1            1 RES     
    8484 C1        -122.3022   -37.1467    65.4806 C1            1 RES     
    8485 N3        -123.0372   -37.5905    66.5391 N3            1 RES     
    8486 S2        -123.9282   -36.2567    66.9534 S2            1 RES     
    8487 N3        -123.4447   -35.1081    65.8696 N3            1 RES     
    8488 S2        -120.3375   -40.8241    69.1902 S2            1 RES     
    8489 C1        -118.7274   -40.9011    69.7087 C1            1 RES     
    8490 C1        -117.8849   -41.1690    68.6229 C1            1 RES     
    8491 C0        -117.6127   -43.0426    66.0334 C0            1 RES     
    8492 C0        -117.3900   -44.4071    66.8600 C0            1 RES     
    8493 C0        -116.7734   -44.2589    68.2867 C0            1 RES     
    8494 C0        -117.7001   -44.8607    69.3600 C0            1 RES     
    8495 C0        -117.2509   -44.5875    70.8068 C0            1 RES     
    8496 C0        -118.1852   -45.3291    71.7818 C0            1 RES     
    8497 C0        -117.9383   -44.9564    73.2490 C0            1 RES     
    8498 C0        -118.8692   -45.7496    74.1691 C0            1 RES     
    8499 C0        -116.4333   -45.2851    65.9366 C0            1 RES     
    8500 C0        -115.8735   -46.7094    66.2444 C0            1 RES     
    8501 C0        -114.5973   -46.8062    67.1356 C0            1 RES     
    8502 C0        -113.7496   -48.0680    66.7862 C0            1 RES     
    8503 C0        -112.4213   -48.1576    67.5659 C0            1 RES     
    8504 C0        -111.3587   -49.0746    66.9059 C0            1 RES     
    8505 C0        -111.7800   -50.5365    66.6974 C0            1 RES     
    8506 C0        -110.6322   -51.3475    66.0808 C0            1 RES     
    8507 C0        -117.0275   -40.6556    65.6388 C0            1 RES     
    8508 C0        -116.1923   -40.7680    64.2331 C0            1 RES     
    8509 C0        -115.4648   -42.1604    64.0513 C0            1 RES     
    8510 C0        -114.3988   -42.3088    62.9705 C0            1 RES     
    8511 C0        -113.6319   -43.6434    62.9758 C0            1 RES     
    8512 C0        -114.4793   -44.8309    62.4737 C0            1 RES     
    8513 C0        -113.6079   -46.0050    61.9920 C0            1 RES     
    8514 C0        -112.8196   -46.6809    63.1006 C0            1 RES     
    8515 C0        -116.8287   -40.2092    62.8799 C0            1 RES     
    8516 C0        -115.7288   -39.6086    61.9241 C0            1 RES     
    8517 C0        -116.0424   -38.8408    60.6104 C0            1 RES     
    8518 C0        -116.2178   -39.6463    59.2814 C0            1 RES     
    8519 C0        -115.6759   -38.7803    58.1018 C0            1 RES     
    8520 C0        -115.7262   -39.3938    56.6857 C0            1 RES     
    8521 C0        -114.9147   -38.4993    55.7149 C0            1 RES     
    8522 C0        -114.9462   -38.9827    54.2658 C0            1 RES     
    8523 H4        -119.1943   -39.5435    64.1147 H4            1 RES     
    8524 H5        -119.9286   -37.7741    63.1317 H5            1 RES     
    8525 H4        -116.8108   -41.1819    68.7196 H4            1 RES     
    8526 H6        -118.0058   -43.4057    65.0598 H6            1 RES     
    8527 H6        -116.5579   -42.8550    66.0369 H6            1 RES     
    8528 H6        -118.3642   -44.9381    66.9375 H6            1 RES     
    8529 H6        -115.7851   -44.7464    68.3644 H6            1 RES     
    8530 H6        -116.5350   -43.2227    68.4965 H6            1 RES     
    8531 H6        -118.7176   -44.4266    69.2445 H6            1 RES     
    8532 H6        -117.7555   -45.9580    69.1853 H6            1 RES     
    8533 H6        -116.2052   -44.9284    70.9732 H6            1 RES     
    8534 H6        -117.3025   -43.4914    70.9896 H6            1 RES     
    8535 H6        -118.0405   -46.4244    71.6459 H6            1 RES     
    8536 H6        -119.2417   -45.0785    71.5425 H6            1 RES     
    8537 H6        -116.8852   -45.1665    73.5338 H6            1 RES     
    8538 H6        -118.1383   -43.8712    73.3883 H6            1 RES     
    8539 H6        -119.9324   -45.5657    73.9020 H6            1 RES     
    8540 H6        -118.6600   -46.8376    74.0828 H6            1 RES     
    8541 H6        -118.7135   -45.4423    75.2246 H6            1 RES     
    8542 H6        -117.0093   -45.4131    64.9938 H6            1 RES     
    8543 H6        -115.5287   -44.6911    65.6776 H6            1 RES     
    8544 H6        -116.6584   -47.4315    66.5469 H6            1 RES     
    8545 H6        -115.5214   -47.0339    65.2395 H6            1 RES     
    8546 H6        -113.9413   -45.9353    66.9095 H6            1 RES     
    8547 H6        -114.8607   -46.7834    68.2125 H6            1 RES     
    8548 H6        -114.3323   -49.0033    66.9227 H6            1 RES     
    8549 H6        -113.4789   -47.9939    65.7222 H6            1 RES     
    8550 H6        -111.9511   -47.1502    67.5943 H6            1 RES     
    8551 H6        -112.6255   -48.4701    68.6119 H6            1 RES     
    8552 H6        -110.4478   -49.0540    67.5445 H6            1 RES     
    8553 H6        -111.0843   -48.6466    65.9157 H6            1 RES     
    8554 H6        -112.6492   -50.5809    66.0077 H6            1 RES     
    8555 H6        -112.0603   -50.9940    67.6688 H6            1 RES     
    8556 H6        -109.7506   -51.3530    66.7579 H6            1 RES     
    8557 H6        -110.3266   -50.9188    65.1016 H6            1 RES     
    8558 H6        -110.9530   -52.3982    65.9167 H6            1 RES     
    8559 H6        -117.3586   -39.5980    65.7317 H6            1 RES     
    8560 H6        -116.2346   -40.7618    66.4141 H6            1 RES     
    8561 H6        -115.3819   -40.0379    64.4473 H6            1 RES     
    8562 H6        -116.2125   -42.9510    63.8513 H6            1 RES     
    8563 H6        -114.8958   -42.3466    64.9873 H6            1 RES     
    8564 H6        -114.8687   -42.2597    61.9725 H6            1 RES     
    8565 H6        -113.6564   -41.4961    63.1252 H6            1 RES     
    8566 H6        -112.8075   -43.4990    62.2457 H6            1 RES     
    8567 H6        -113.1750   -43.8533    63.9686 H6            1 RES     
    8568 H6        -115.0444   -44.5044    61.5751 H6            1 RES     
    8569 H6        -115.2158   -45.1529    63.2398 H6            1 RES     
    8570 H6        -112.9028   -45.6400    61.2138 H6            1 RES     
    8571 H6        -114.2653   -46.7699    61.5247 H6            1 RES     
    8572 H6        -112.2082   -47.5043    62.6728 H6            1 RES     
    8573 H6        -113.5399   -47.1089    63.8123 H6            1 RES     
    8574 H6        -112.1423   -45.9708    63.6177 H6            1 RES     
    8575 H6        -117.4891   -40.9624    62.3969 H6            1 RES     
    8576 H6        -117.4196   -39.3101    63.1187 H6            1 RES     
    8577 H6        -115.2198   -38.8553    62.5633 H6            1 RES     
    8578 H6        -114.9456   -40.2976    61.6265 H6            1 RES     
    8579 H6        -115.0837   -38.2931    60.4677 H6            1 RES     
    8580 H6        -116.8181   -38.0565    60.7308 H6            1 RES     
    8581 H6        -117.2783   -39.9490    59.1412 H6            1 RES     
    8582 H6        -115.5897   -40.5635    59.3027 H6            1 RES     
    8583 H6        -114.6001   -38.5929    58.3208 H6            1 RES     
    8584 H6        -116.2020   -37.8018    58.0774 H6            1 RES     
    8585 H6        -116.7830   -39.4707    56.3504 H6            1 RES     
    8586 H6        -115.2719   -40.4085    56.6857 H6            1 RES     
    8587 H6        -113.8513   -38.4804    56.0446 H6            1 RES     
    8588 H6        -115.3046   -37.4588    55.7390 H6            1 RES     
    8589 H6        -115.9822   -38.9524    53.8692 H6            1 RES     
    8590 H6        -114.5431   -40.0133    54.1816 H6            1 RES     
    8591 H6        -114.3152   -38.3101    53.6419 H6            1 RES     
    8592 C0        -114.6195   -37.4687    77.2008 C0            1 RES     
    8593 C1        -115.7362   -36.7512    77.5278 C1            1 RES     
    8594 C1        -116.8388   -37.5126    77.6739 C1            1 RES     
    8595 C1        -116.5972   -38.7580    77.4076 C1            1 RES     
    8596 C1        -115.1879   -38.9337    77.0152 C1            1 RES     
    8597 C1        -115.5066   -39.3889    75.5990 C1            1 RES     
    8598 C1        -116.7811   -39.8106    75.3526 C1            1 RES     
    8599 S2        -117.8111   -39.9049    76.8561 S2            1 RES     
    8600 C1        -117.3120   -40.1120    73.9572 C1            1 RES     
    8601 C1        -116.4287   -40.3033    72.8541 C1            1 RES     
    8602 N3        -116.8962   -40.5495    71.5959 N3            1 RES     
    8603 C1        -118.2146   -40.6081    71.3028 C1            1 RES     
    8604 C1        -119.1373   -40.4100    72.3223 C1            1 RES     
    8605 C1        -118.6896   -40.1687    73.6568 C1            1 RES     
    8606 N3        -119.6884   -39.9782    74.5644 N3            1 RES     
    8607 S2        -121.0567   -40.1315    73.6433 S2            1 RES     
    8608 N3        -120.4780   -40.4254    72.1246 N3            1 RES     
    8609 S2        -118.2345   -36.6307    77.9486 S2            1 RES     
    8610 C1        -117.3988   -35.1588    77.8980 C1            1 RES     
    8611 C1        -116.0458   -35.3836    77.6165 C1            1 RES     
    8612 C0        -113.5774   -37.2744    78.4053 C0            1 RES     
    8613 C0        -113.4253   -36.7029    79.9036 C0            1 RES     
    8614 C0        -113.9236   -35.2424    80.1409 C0            1 RES     
    8615 C0        -115.0071   -35.1937    81.2347 C0            1 RES     
    8616 C0        -115.6808   -33.8189    81.3949 C0            1 RES     
    8617 C0        -116.6579   -33.8629    82.5852 C0            1 RES     
    8618 C0        -117.5222   -32.6008    82.6982 C0            1 RES     
    8619 C0        -118.4441   -32.6881    83.9167 C0            1 RES     
    8620 C0        -111.8670   -36.8097    80.2185 C0            1 RES     
    8621 C0        -111.1393   -36.3822    81.5317 C0            1 RES     
    8622 C0        -110.7581   -34.8781    81.6887 C0            1 RES     
    8623 C0        -109.4863   -34.6996    82.5738 C0            1 RES     
    8624 C0        -109.0029   -33.2380    82.6765 C0            1 RES     
    8625 C0        -107.5178   -33.0888    83.0978 C0            1 RES     
    8626 C0        -107.1453   -33.7115    84.4512 C0            1 RES     
    8627 C0        -105.6662   -33.4594    84.7739 C0            1 RES     
    8628 C0        -113.8068   -36.8520    75.9630 C0            1 RES     
    8629 C0        -112.3200   -37.2902    75.4301 C0            1 RES     
    8630 C0        -111.1869   -37.0916    76.5152 C0            1 RES     
    8631 C0        -109.7247   -37.1435    76.0839 C0            1 RES     
    8632 C0        -108.6999   -36.7772    77.1725 C0            1 RES     
    8633 C0        -108.5464   -37.8689    78.2518 C0            1 RES     
    8634 C0        -107.2093   -37.7571    79.0065 C0            1 RES     
    8635 C0        -107.0888   -36.5078    79.8620 C0            1 RES     
    8636 C0        -112.1413   -38.6235    74.5705 C0            1 RES     
    8637 C0        -111.0084   -38.4690    73.4858 C0            1 RES     
    8638 C0        -110.7054   -39.5249    72.3872 C0            1 RES     
    8639 C0        -109.7163   -40.6934    72.7068 C0            1 RES     
    8640 C0        -108.9338   -41.0505    71.4048 C0            1 RES     
    8641 C0        -107.8747   -42.1706    71.4944 C0            1 RES     
    8642 C0        -107.0425   -42.1893    70.1875 C0            1 RES     
    8643 C0        -105.9980   -43.3035    70.1425 C0            1 RES     
    8644 H4        -114.7968   -39.2948    74.8194 H4            1 RES     
    8645 H5        -115.3597   -40.2803    72.9897 H5            1 RES     
    8646 H4        -115.3497   -34.5745    77.4619 H4            1 RES     
    8647 H6        -113.1214   -38.2848    78.4795 H6            1 RES     
    8648 H6        -112.9116   -36.5198    78.0377 H6            1 RES     
    8649 H6        -113.9577   -37.3872    80.6002 H6            1 RES     
    8650 H6        -113.1008   -34.5655    80.4329 H6            1 RES     
    8651 H6        -114.2677   -34.7985    79.2140 H6            1 RES     
    8652 H6        -115.8075   -35.9245    80.9844 H6            1 RES     
    8653 H6        -114.5342   -35.4939    82.1958 H6            1 RES     
    8654 H6        -114.9264   -33.0208    81.5715 H6            1 RES     
    8655 H6        -116.2331   -33.5870    80.4574 H6            1 RES     
    8656 H6        -116.0696   -33.9970    83.5206 H6            1 RES     
    8657 H6        -117.3419   -34.7318    82.4688 H6            1 RES     
    8658 H6        -116.8833   -31.6969    82.7936 H6            1 RES     
    8659 H6        -118.1474   -32.5039    81.7836 H6            1 RES     
    8660 H6        -119.0912   -33.5897    83.8534 H6            1 RES     
    8661 H6        -117.8439   -32.7414    84.8504 H6            1 RES     
    8662 H6        -119.0957   -31.7904    83.9660 H6            1 RES     
    8663 H6        -111.6444   -37.8949    80.1207 H6            1 RES     
    8664 H6        -111.2951   -36.2948    79.4146 H6            1 RES     
    8665 H6        -111.6069   -36.7996    82.4461 H6            1 RES     
    8666 H6        -110.1576   -36.8954    81.4212 H6            1 RES     
    8667 H6        -110.4822   -34.4769    80.6873 H6            1 RES     
    8668 H6        -111.6107   -34.2903    82.0853 H6            1 RES     
    8669 H6        -109.6322   -35.1221    83.5903 H6            1 RES     
    8670 H6        -108.6722   -35.2609    82.0912 H6            1 RES     
    8671 H6        -109.0633   -32.7667    81.6711 H6            1 RES     
    8672 H6        -109.6716   -32.6732    83.3603 H6            1 RES     
    8673 H6        -107.2803   -32.0023    83.1282 H6            1 RES     
    8674 H6        -106.8768   -33.5508    82.3137 H6            1 RES     
    8675 H6        -107.3136   -34.8087    84.4175 H6            1 RES     
    8676 H6        -107.7679   -33.2708    85.2572 H6            1 RES     
    8677 H6        -105.4632   -32.3689    84.8470 H6            1 RES     
    8678 H6        -105.0105   -33.8918    83.9871 H6            1 RES     
    8679 H6        -105.4023   -33.9295    85.7451 H6            1 RES     
    8680 H6        -114.4850   -36.8821    75.0821 H6            1 RES     
    8681 H6        -113.6887   -35.7655    76.1788 H6            1 RES     
    8682 H6        -112.1543   -36.4864    74.6804 H6            1 RES     
    8683 H6        -111.2952   -37.8497    77.3138 H6            1 RES     
    8684 H6        -111.2943   -36.0553    76.9014 H6            1 RES     
    8685 H6        -109.4594   -38.1727    75.7843 H6            1 RES     
    8686 H6        -109.6005   -36.4186    75.2504 H6            1 RES     
    8687 H6        -107.7296   -36.7095    76.6365 H6            1 RES     
    8688 H6        -108.9118   -35.7809    77.6208 H6            1 RES     
    8689 H6        -108.5109   -38.8583    77.7485 H6            1 RES     
    8690 H6        -109.4119   -37.8725    78.9474 H6            1 RES     
    8691 H6        -106.3742   -37.7784    78.2729 H6            1 RES     
    8692 H6        -107.1002   -38.6398    79.6731 H6            1 RES     
    8693 H6        -106.0957   -36.4933    80.3604 H6            1 RES     
    8694 H6        -107.8705   -36.5522    80.6336 H6            1 RES     
    8695 H6        -107.1942   -35.5827    79.2592 H6            1 RES     
    8696 H6        -112.0290   -39.5180    75.2216 H6            1 RES     
    8697 H6        -113.0321   -38.7489    73.9339 H6            1 RES     
    8698 H6        -111.3223   -37.5678    72.9162 H6            1 RES     
    8699 H6        -110.0246   -38.2262    73.8731 H6            1 RES     
    8700 H6        -110.1499   -38.8956    71.6558 H6            1 RES     
    8701 H6        -111.6104   -39.8767    71.8501 H6            1 RES     
    8702 H6        -110.2598   -41.5637    73.1346 H6            1 RES     
    8703 H6        -108.9522   -40.3593    73.4422 H6            1 RES     
    8704 H6        -108.3854   -40.1280    71.1073 H6            1 RES     
    8705 H6        -109.6474   -41.3088    70.5929 H6            1 RES     
    8706 H6        -108.3793   -43.1490    71.6468 H6            1 RES     
    8707 H6        -107.1831   -41.9840    72.3446 H6            1 RES     
    8708 H6        -106.5085   -41.2175    70.0854 H6            1 RES     
    8709 H6        -107.7134   -42.3111    69.3098 H6            1 RES     
    8710 H6        -106.4900   -44.2978    70.1713 H6            1 RES     
    8711 H6        -105.2847   -43.2141    70.9881 H6            1 RES     
    8712 H6        -105.4226   -43.2276    69.1923 H6            1 RES     
    8713 C0        -120.3864   -26.5558    76.5379 C0            1 RES     
    8714 C1        -121.6317   -27.0044    76.1964 C1            1 RES     
    8715 C1        -122.2110   -27.7574    77.1525 C1            1 RES     
    8716 C1        -121.4197   -27.9363    78.1636 C1            1 RES     
    8717 C1        -120.1296   -27.2642    77.9293 C1            1 RES     
    8718 C1        -119.3163   -28.5499    77.9230 C1            1 RES     
    8719 C1        -119.9004   -29.6586    78.4638 C1            1 RES     
    8720 S2        -121.5070   -29.3113    79.2567 S2            1 RES     
    8721 C1        -119.3049   -31.0568    78.3624 C1            1 RES     
    8722 C1        -117.9410   -31.2561    77.9969 C1            1 RES     
    8723 N3        -117.4056   -32.5059    77.8798 N3            1 RES     
    8724 C1        -118.1256   -33.6327    78.0785 C1            1 RES     
    8725 C1        -119.4684   -33.5193    78.4164 C1            1 RES     
    8726 C1        -120.0625   -32.2294    78.5677 C1            1 RES     
    8727 N3        -121.3870   -32.2492    78.8885 N3            1 RES     
    8728 S2        -121.7221   -33.8696    78.9686 S2            1 RES     
    8729 N3        -120.2784   -34.5882    78.6119 N3            1 RES     
    8730 S2        -123.6799   -28.4154    76.6936 S2            1 RES     
    8731 C1        -123.6076   -27.6898    75.1654 C1            1 RES     
    8732 C1        -122.4067   -26.9837    75.0247 C1            1 RES     
    8733 C0        -120.4681   -24.9538    76.5776 C0            1 RES     
    8734 C0        -121.4909   -23.7102    76.5359 C0            1 RES     
    8735 C0        -122.5231   -23.7024    75.3645 C0            1 RES     
    8736 C0        -123.9688   -23.6659    75.8953 C0            1 RES     
    8737 C0        -125.0446   -23.8449    74.8091 C0            1 RES     
    8738 C0        -126.4409   -23.6777    75.4385 C0            1 RES     
    8739 C0        -127.5795   -24.0361    74.4753 C0            1 RES     
    8740 C0        -128.9384   -23.8162    75.1440 C0            1 RES     
    8741 C0        -120.5557   -22.4229    76.4525 C0            1 RES     
    8742 C0        -121.0098   -20.9315    76.3731 C0            1 RES     
    8743 C0        -121.3943   -20.3678    74.9707 C0            1 RES     
    8744 C0        -121.1140   -18.8366    74.8730 C0            1 RES     
    8745 C0        -121.3781   -18.2464    73.4721 C0            1 RES     
    8746 C0        -120.6535   -16.9018    73.2030 C0            1 RES     
    8747 C0        -120.9932   -15.7588    74.1707 C0            1 RES     
    8748 C0        -120.2504   -14.4756    73.7741 C0            1 RES     
    8749 C0        -119.2871   -26.7986    75.3952 C0            1 RES     
    8750 C0        -117.7600   -26.2059    75.3402 C0            1 RES     
    8751 C0        -117.7065   -24.6255    75.3182 C0            1 RES     
    8752 C0        -116.4013   -23.9291    74.9467 C0            1 RES     
    8753 C0        -116.4875   -22.4000    74.7916 C0            1 RES     
    8754 C0        -116.6392   -21.6623    76.1381 C0            1 RES     
    8755 C0        -116.2087   -20.1872    76.0450 C0            1 RES     
    8756 C0        -117.1095   -19.3382    75.1648 C0            1 RES     
    8757 C0        -116.6165   -26.8617    76.2408 C0            1 RES     
    8758 C0        -115.2169   -26.8321    75.5168 C0            1 RES     
    8759 C0        -113.9424   -27.5375    76.0570 C0            1 RES     
    8760 C0        -113.0163   -26.7731    77.0589 C0            1 RES     
    8761 C0        -111.5397   -27.2045    76.7968 C0            1 RES     
    8762 C0        -110.4416   -26.5494    77.6623 C0            1 RES     
    8763 C0        -109.0521   -26.9075    77.0776 C0            1 RES     
    8764 C0        -107.8837   -26.3576    77.8944 C0            1 RES     
    8765 H4        -118.3772   -28.6029    77.4377 H4            1 RES     
    8766 H5        -117.2856   -30.4182    77.8236 H5            1 RES     
    8767 H4        -122.1239   -26.5116    74.0972 H4            1 RES     
    8768 H6        -119.8224   -24.7126    77.4489 H6            1 RES     
    8769 H6        -120.0558   -24.6611    75.6331 H6            1 RES     
    8770 H6        -122.0377   -23.6677    77.5035 H6            1 RES     
    8771 H6        -122.3768   -22.8413    74.6881 H6            1 RES     
    8772 H6        -122.3591   -24.5445    74.7023 H6            1 RES     
    8773 H6        -124.1051   -24.4886    76.6314 H6            1 RES     
    8774 H6        -124.1167   -22.6923    76.4129 H6            1 RES     
    8775 H6        -124.9201   -23.0979    73.9943 H6            1 RES     
    8776 H6        -124.9415   -24.8649    74.3772 H6            1 RES     
    8777 H6        -126.5537   -22.6220    75.7729 H6            1 RES     
    8778 H6        -126.5270   -24.3420    76.3260 H6            1 RES     
    8779 H6        -127.5248   -23.4135    73.5567 H6            1 RES     
    8780 H6        -127.4915   -25.1072    74.1891 H6            1 RES     
    8781 H6        -129.0193   -24.4213    76.0730 H6            1 RES     
    8782 H6        -129.0716   -22.7433    75.4013 H6            1 RES     
    8783 H6        -129.7549   -24.1186    74.4551 H6            1 RES     
    8784 H6        -119.9400   -22.4747    77.3772 H6            1 RES     
    8785 H6        -119.8532   -22.5358    75.5969 H6            1 RES     
    8786 H6        -121.7431   -20.6556    77.1574 H6            1 RES     
    8787 H6        -120.0668   -20.3963    76.6256 H6            1 RES     
    8788 H6        -120.7356   -20.8400    74.2071 H6            1 RES     
    8789 H6        -122.4499   -20.6007    74.7235 H6            1 RES     
    8790 H6        -121.6832   -18.2665    75.6372 H6            1 RES     
    8791 H6        -120.0422   -18.6883    75.0736 H6            1 RES     
    8792 H6        -120.9777   -18.9450    72.7051 H6            1 RES     
    8793 H6        -122.4727   -18.1506    73.3103 H6            1 RES     
    8794 H6        -120.9068   -16.5799    72.1686 H6            1 RES     
    8795 H6        -119.5546   -17.0753    73.2411 H6            1 RES     
    8796 H6        -120.6855   -16.0365    75.2009 H6            1 RES     
    8797 H6        -122.0848   -15.5597    74.1562 H6            1 RES     
    8798 H6        -120.5554   -14.1467    72.7570 H6            1 RES     
    8799 H6        -119.1505   -14.6371    73.7813 H6            1 RES     
    8800 H6        -120.4879   -13.6606    74.4905 H6            1 RES     
    8801 H6        -119.2100   -27.8981    75.2474 H6            1 RES     
    8802 H6        -119.7376   -26.4271    74.4465 H6            1 RES     
    8803 H6        -117.4811   -26.5245    74.3125 H6            1 RES     
    8804 H6        -117.9922   -24.2267    76.3099 H6            1 RES     
    8805 H6        -118.4004   -24.2949    74.5159 H6            1 RES     
    8806 H6        -115.6528   -24.0882    75.7428 H6            1 RES     
    8807 H6        -116.0708   -24.3460    73.9707 H6            1 RES     
    8808 H6        -115.5058   -22.1030    74.3655 H6            1 RES     
    8809 H6        -117.2777   -22.1024    74.0668 H6            1 RES     
    8810 H6        -115.9411   -22.1201    76.8705 H6            1 RES     
    8811 H6        -117.6691   -21.7652    76.5402 H6            1 RES     
    8812 H6        -115.1676   -20.1353    75.6584 H6            1 RES     
    8813 H6        -116.2156   -19.7477    77.0659 H6            1 RES     
    8814 H6        -116.7265   -18.2954    75.1376 H6            1 RES     
    8815 H6        -118.1124   -19.3342    75.6151 H6            1 RES     
    8816 H6        -117.1548   -19.7243    74.1260 H6            1 RES     
    8817 H6        -116.6073   -26.4326    77.2667 H6            1 RES     
    8818 H6        -116.8026   -27.9461    76.3039 H6            1 RES     
    8819 H6        -115.4195   -27.3416    74.5501 H6            1 RES     
    8820 H6        -114.8564   -25.8463    75.2430 H6            1 RES     
    8821 H6        -113.3380   -27.5957    75.1238 H6            1 RES     
    8822 H6        -114.1159   -28.5892    76.3653 H6            1 RES     
    8823 H6        -113.3374   -26.9529    78.1079 H6            1 RES     
    8824 H6        -113.0563   -25.6797    76.8609 H6            1 RES     
    8825 H6        -111.3144   -26.9219    75.7434 H6            1 RES     
    8826 H6        -111.4455   -28.3079    76.8893 H6            1 RES     
    8827 H6        -110.5269   -26.9121    78.7094 H6            1 RES     
    8828 H6        -110.5482   -25.4429    77.6530 H6            1 RES     
    8829 H6        -108.9746   -26.4896    76.0484 H6            1 RES     
    8830 H6        -108.9380   -28.0112    77.0140 H6            1 RES     
    8831 H6        -107.8786   -26.8016    78.9114 H6            1 RES     
    8832 H6        -107.9366   -25.2515    77.9690 H6            1 RES     
    8833 H6        -106.9272   -26.6273    77.3924 H6            1 RES     
    8834 C0        -128.0339   -29.6439    67.3310 C0            1 RES     
    8835 C1        -128.5293   -30.8036    67.8587 C1            1 RES     
    8836 C1        -129.2425   -30.6172    68.9871 C1            1 RES     
    8837 C1        -129.2434   -29.3730    69.3509 C1            1 RES     
    8838 C1        -128.4461   -28.5645    68.4121 C1            1 RES     
    8839 C1        -127.3998   -28.1683    69.4430 C1            1 RES     
    8840 C1        -127.7307   -28.3256    70.7578 C1            1 RES     
    8841 S2        -129.4674   -28.8273    71.0078 S2            1 RES     
    8842 C1        -126.7368   -28.1617    71.9003 C1            1 RES     
    8843 C1        -125.4862   -27.5048    71.7054 C1            1 RES     
    8844 N3        -124.5795   -27.3749    72.7170 N3            1 RES     
    8845 C1        -124.7889   -27.8720    73.9565 C1            1 RES     
    8846 C1        -125.9762   -28.5448    74.2172 C1            1 RES     
    8847 C1        -126.9597   -28.6858    73.1913 C1            1 RES     
    8848 N3        -128.0746   -29.3747    73.5654 N3            1 RES     
    8849 S2        -127.7603   -29.7522    75.1475 S2            1 RES     
    8850 N3        -126.2678   -29.0990    75.4191 N3            1 RES     
    8851 S2        -129.7450   -32.0412    69.7089 S2            1 RES     
    8852 C1        -129.0254   -32.9887    68.5041 C1            1 RES     
    8853 C1        -128.3603   -32.1708    67.5825 C1            1 RES     
    8854 C0        -128.7061   -29.4714    65.8843 C0            1 RES     
    8855 C0        -129.8538   -30.0518    64.9146 C0            1 RES     
    8856 C0        -129.8599   -31.5980    64.6982 C0            1 RES     
    8857 C0        -131.2090   -32.2140    65.1148 C0            1 RES     
    8858 C0        -131.2289   -33.7532    65.1077 C0            1 RES     
    8859 C0        -132.6520   -34.2485    65.4286 C0            1 RES     
    8860 C0        -132.7251   -35.7658    65.6405 C0            1 RES     
    8861 C0        -134.1657   -36.2009    65.9193 C0            1 RES     
    8862 C0        -129.6239   -29.3038    63.5267 C0            1 RES     
    8863 C0        -130.4424   -29.4871    62.2102 C0            1 RES     
    8864 C0        -130.0593   -30.6807    61.2824 C0            1 RES     
    8865 C0        -130.3681   -30.3648    59.7865 C0            1 RES     
    8866 C0        -129.9117   -31.4709    58.8125 C0            1 RES     
    8867 C0        -129.7362   -30.9935    57.3474 C0            1 RES     
    8868 C0        -130.9882   -30.3958    56.6889 C0            1 RES     
    8869 C0        -130.6992   -30.0043    55.2333 C0            1 RES     
    8870 C0        -126.4758   -29.7287    66.9593 C0            1 RES     
    8871 C0        -125.5935   -28.6387    66.1109 C0            1 RES     
    8872 C0        -126.1253   -28.4194    64.6378 C0            1 RES     
    8873 C0        -125.2424   -27.6950    63.6268 C0            1 RES     
    8874 C0        -125.7714   -27.6734    62.1814 C0            1 RES     
    8875 C0        -126.9748   -26.7269    61.9909 C0            1 RES     
    8876 C0        -127.1608   -26.3109    60.5204 C0            1 RES     
    8877 C0        -127.5639   -27.4536    59.6045 C0            1 RES     
    8878 C0        -125.1046   -27.2897    66.8107 C0            1 RES     
    8879 C0        -123.6937   -26.8347    66.2757 C0            1 RES     
    8880 C0        -122.8742   -25.6580    66.8735 C0            1 RES     
    8881 C0        -123.1230   -24.2090    66.3403 C0            1 RES     
    8882 C0        -121.7715   -23.4297    66.3737 C0            1 RES     
    8883 C0        -121.7762   -21.9727    65.8626 C0            1 RES     
    8884 C0        -120.3148   -21.4741    65.7341 C0            1 RES     
    8885 C0        -120.2018   -20.0164    65.2902 C0            1 RES     
    8886 H4        -126.4266   -27.8718    69.1512 H4            1 RES     
    8887 H5        -125.2309   -27.0704    70.7526 H5            1 RES     
    8888 H4        -127.7683   -32.5767    66.7776 H4            1 RES     
    8889 H6        -128.8778   -28.3746    65.8405 H6            1 RES     
    8890 H6        -127.9469   -29.8225    65.2148 H6            1 RES     
    8891 H6        -130.8447   -29.7351    65.3082 H6            1 RES     
    8892 H6        -129.6606   -31.8707    63.6464 H6            1 RES     
    8893 H6        -129.0289   -32.0618    65.2167 H6            1 RES     
    8894 H6        -131.4521   -31.8872    66.1498 H6            1 RES     
    8895 H6        -131.9886   -31.8256    64.4228 H6            1 RES     
    8896 H6        -130.9178   -34.1538    64.1177 H6            1 RES     
    8897 H6        -130.5160   -34.1173    65.8802 H6            1 RES     
    8898 H6        -133.3252   -33.9560    64.5916 H6            1 RES     
    8899 H6        -133.0113   -33.7593    66.3602 H6            1 RES     
    8900 H6        -132.3534   -36.3042    64.7425 H6            1 RES     
    8901 H6        -132.0932   -36.0431    66.5127 H6            1 RES     
    8902 H6        -134.5686   -35.6710    66.8096 H6            1 RES     
    8903 H6        -134.8121   -35.9753    65.0439 H6            1 RES     
    8904 H6        -134.2025   -37.2934    66.1138 H6            1 RES     
    8905 H6        -129.7413   -28.2265    63.7766 H6            1 RES     
    8906 H6        -128.5669   -29.4420    63.2072 H6            1 RES     
    8907 H6        -131.5373   -29.4006    62.3608 H6            1 RES     
    8908 H6        -130.1356   -28.5889    61.6285 H6            1 RES     
    8909 H6        -128.9569   -30.8287    61.3336 H6            1 RES     
    8910 H6        -130.5596   -31.6152    61.6083 H6            1 RES     
    8911 H6        -131.4446   -30.1424    59.6288 H6            1 RES     
    8912 H6        -129.7969   -29.4630    59.5195 H6            1 RES     
    8913 H6        -128.9041   -31.8280    59.1191 H6            1 RES     
    8914 H6        -130.6127   -32.3303    58.8722 H6            1 RES     
    8915 H6        -129.3979   -31.8647    56.7438 H6            1 RES     
    8916 H6        -128.9277   -30.2290    57.3160 H6            1 RES     
    8917 H6        -131.3023   -29.4844    57.2402 H6            1 RES     
    8918 H6        -131.8156   -31.1352    56.7034 H6            1 RES     
    8919 H6        -130.4102   -30.8980    54.6389 H6            1 RES     
    8920 H6        -129.8754   -29.2596    55.1802 H6            1 RES     
    8921 H6        -131.6049   -29.5561    54.7720 H6            1 RES     
    8922 H6        -125.9259   -29.9185    67.9071 H6            1 RES     
    8923 H6        -126.3460   -30.6690    66.3761 H6            1 RES     
    8924 H6        -124.6511   -29.2178    66.0007 H6            1 RES     
    8925 H6        -127.0799   -27.8605    64.6630 H6            1 RES     
    8926 H6        -126.2404   -29.4286    64.1875 H6            1 RES     
    8927 H6        -125.1487   -26.6309    63.9067 H6            1 RES     
    8928 H6        -124.2595   -28.2140    63.6153 H6            1 RES     
    8929 H6        -124.9338   -27.2615    61.5795 H6            1 RES     
    8930 H6        -125.9891   -28.6981    61.8059 H6            1 RES     
    8931 H6        -126.7670   -25.7805    62.5336 H6            1 RES     
    8932 H6        -127.9030   -27.1648    62.4147 H6            1 RES     
    8933 H6        -126.2155   -25.8605    60.1470 H6            1 RES     
    8934 H6        -127.9535   -25.5336    60.4664 H6            1 RES     
    8935 H6        -127.6640   -27.0777    58.5636 H6            1 RES     
    8936 H6        -128.5421   -27.8253    59.9413 H6            1 RES     
    8937 H6        -126.8164   -28.2731    59.6130 H6            1 RES     
    8938 H6        -125.8853   -26.4990    66.7649 H6            1 RES     
    8939 H6        -124.8735   -27.5091    67.8657 H6            1 RES     
    8940 H6        -123.0548   -27.7269    66.4517 H6            1 RES     
    8941 H6        -123.6375   -26.6571    65.2070 H6            1 RES     
    8942 H6        -121.8583   -25.9123    66.4954 H6            1 RES     
    8943 H6        -122.7966   -25.6901    67.9799 H6            1 RES     
    8944 H6        -123.9241   -23.7063    66.9247 H6            1 RES     
    8945 H6        -123.4328   -24.2406    65.2730 H6            1 RES     
    8946 H6        -121.0725   -23.9887    65.7110 H6            1 RES     
    8947 H6        -121.3554   -23.4370    67.4041 H6            1 RES     
    8948 H6        -122.3439   -21.3314    66.5709 H6            1 RES     
    8949 H6        -122.2530   -21.9143    64.8600 H6            1 RES     
    8950 H6        -119.7839   -22.1011    64.9825 H6            1 RES     
    8951 H6        -119.7890   -21.5789    66.7078 H6            1 RES     
    8952 H6        -120.6579   -19.3443    66.0463 H6            1 RES     
    8953 H6        -120.6923   -19.8612    64.3068 H6            1 RES     
    8954 H6        -119.1262   -19.7470    65.1891 H6            1 RES     
    8955 C0        -126.5956   -41.8701    68.4446 C0            1 RES     
    8956 C1        -126.8376   -41.9819    69.7854 C1            1 RES     
    8957 C1        -128.0964   -41.6477    70.1324 C1            1 RES     
    8958 C1        -128.7788   -41.2333    69.1111 C1            1 RES     
    8959 C1        -127.9443   -41.2497    67.8970 C1            1 RES     
    8960 C1        -127.9912   -39.7433    67.6906 C1            1 RES     
    8961 C1        -128.9704   -39.0552    68.3469 C1            1 RES     
    8962 S2        -130.1522   -40.1398    69.2172 S2            1 RES     
    8963 C1        -129.0366   -37.5345    68.4024 C1            1 RES     
    8964 C1        -128.2855   -36.7271    67.4983 C1            1 RES     
    8965 N3        -128.3198   -35.3641    67.5565 N3            1 RES     
    8966 C1        -129.0426   -34.6884    68.4776 C1            1 RES     
    8967 C1        -129.7840   -35.4072    69.4070 C1            1 RES     
    8968 C1        -129.7904   -36.8348    69.3684 C1            1 RES     
    8969 N3        -130.5448   -37.4249    70.3382 N3            1 RES     
    8970 S2        -131.1558   -36.1284    71.1690 S2            1 RES     
    8971 N3        -130.5202   -34.8222    70.3831 N3            1 RES     
    8972 S2        -128.3649   -41.6592    71.7844 S2            1 RES     
    8973 C1        -126.7741   -42.1388    72.1109 C1            1 RES     
    8974 C1        -126.0461   -42.2332    70.9186 C1            1 RES     
    8975 C0        -126.2422   -43.3430    67.9153 C0            1 RES     
    8976 C0        -126.2357   -44.8992    68.3312 C0            1 RES     
    8977 C0        -125.5372   -45.2513    69.6824 C0            1 RES     
    8978 C0        -126.5081   -45.9637    70.6430 C0            1 RES     
    8979 C0        -125.9502   -46.1754    72.0619 C0            1 RES     
    8980 C0        -126.9587   -46.9921    72.8923 C0            1 RES     
    8981 C0        -126.5801   -47.0818    74.3760 C0            1 RES     
    8982 C0        -127.5973   -47.9329    75.1397 C0            1 RES     
    8983 C0        -125.5001   -45.6350    67.1244 C0            1 RES     
    8984 C0        -125.1976   -47.1609    66.9947 C0            1 RES     
    8985 C0        -123.9210   -47.7065    67.7053 C0            1 RES     
    8986 C0        -123.3364   -48.9455    66.9597 C0            1 RES     
    8987 C0        -122.0125   -49.4623    67.5603 C0            1 RES     
    8988 C0        -121.1679   -50.3247    66.5864 C0            1 RES     
    8989 C0        -121.8595   -51.5835    66.0432 C0            1 RES     
    8990 C0        -120.9097   -52.3714    65.1306 C0            1 RES     
    8991 C0        -125.2477   -41.0691    68.1060 C0            1 RES     
    8992 C0        -124.5131   -40.9272    66.6477 C0            1 RES     
    8993 C0        -124.0626   -42.3161    66.0403 C0            1 RES     
    8994 C0        -123.0930   -42.3354    64.8630 C0            1 RES     
    8995 C0        -122.5846   -43.7274    64.4466 C0            1 RES     
    8996 C0        -123.6578   -44.5757    63.7332 C0            1 RES     
    8997 C0        -123.0398   -45.6992    62.8813 C0            1 RES     
    8998 C0        -122.3387   -46.7731    63.6951 C0            1 RES     
    8999 C0        -125.0979   -39.9221    65.5539 C0            1 RES     
    9000 C0        -123.9517   -39.2714    64.6897 C0            1 RES     
    9001 C0        -124.1794   -38.1321    63.6582 C0            1 RES     
    9002 C0        -124.5608   -38.5021    62.1873 C0            1 RES     
    9003 C0        -123.9241   -37.4471    61.2299 C0            1 RES     
    9004 C0        -124.1514   -37.6317    59.7139 C0            1 RES     
    9005 C0        -123.2353   -36.6512    58.9392 C0            1 RES     
    9006 C0        -123.4218   -36.7066    57.4237 C0            1 RES     
    9007 H4        -127.2416   -39.2415    67.1368 H4            1 RES     
    9008 H5        -127.6832   -37.1748    66.7247 H5            1 RES     
    9009 H4        -124.9894   -42.4482    70.9070 H4            1 RES     
    9010 H6        -126.7397   -43.3555    66.9220 H6            1 RES     
    9011 H6        -125.1718   -43.3394    67.8685 H6            1 RES     
    9012 H6        -127.2862   -45.2636    68.3583 H6            1 RES     
    9013 H6        -124.6526   -45.8968    69.5365 H6            1 RES     
    9014 H6        -125.1033   -44.3661    70.1327 H6            1 RES     
    9015 H6        -127.4330   -45.3536    70.7414 H6            1 RES     
    9016 H6        -126.7720   -46.9464    70.1932 H6            1 RES     
    9017 H6        -124.9782   -46.7157    72.0342 H6            1 RES     
    9018 H6        -125.7912   -45.1784    72.5292 H6            1 RES     
    9019 H6        -127.0238   -48.0164    72.4615 H6            1 RES     
    9020 H6        -127.9612   -46.5155    72.8273 H6            1 RES     
    9021 H6        -125.5714   -47.5320    74.4954 H6            1 RES     
    9022 H6        -126.5710   -46.0589    74.8125 H6            1 RES     
    9023 H6        -128.6199   -47.5108    75.0312 H6            1 RES     
    9024 H6        -127.5956   -48.9745    74.7523 H6            1 RES     
    9025 H6        -127.3393   -47.9567    76.2193 H6            1 RES     
    9026 H6        -126.1326   -45.4031    66.2395 H6            1 RES     
    9027 H6        -124.5148   -45.1496    66.9460 H6            1 RES     
    9028 H6        -126.0868   -47.7991    67.1700 H6            1 RES     
    9029 H6        -124.9578   -47.2505    65.9113 H6            1 RES     
    9030 H6        -123.1275   -46.9270    67.6544 H6            1 RES     
    9031 H6        -124.1258   -47.9370    68.7705 H6            1 RES     
    9032 H6        -124.0739   -49.7735    66.9008 H6            1 RES     
    9033 H6        -123.1061   -48.6280    65.9316 H6            1 RES     
    9034 H6        -121.3647   -48.5928    67.8070 H6            1 RES     
    9035 H6        -122.2221   -50.0118    68.5025 H6            1 RES     
    9036 H6        -120.2402   -50.6299    67.1195 H6            1 RES     
    9037 H6        -120.8656   -49.6927    65.7214 H6            1 RES     
    9038 H6        -122.7530   -51.2937    65.4508 H6            1 RES     
    9039 H6        -122.1739   -52.2374    66.8828 H6            1 RES     
    9040 H6        -120.0138   -52.7070    65.6967 H6            1 RES     
    9041 H6        -120.5761   -51.7468    64.2735 H6            1 RES     
    9042 H6        -121.4251   -53.2693    64.7281 H6            1 RES     
    9043 H6        -125.3744   -40.0381    68.5031 H6            1 RES     
    9044 H6        -124.4528   -41.5126    68.7483 H6            1 RES     
    9045 H6        -123.5735   -40.4272    66.9683 H6            1 RES     
    9046 H6        -124.9512   -42.8876    65.7115 H6            1 RES     
    9047 H6        -123.4949   -42.8427    66.8370 H6            1 RES     
    9048 H6        -123.5915   -41.9379    63.9614 H6            1 RES     
    9049 H6        -122.2078   -41.7297    65.1545 H6            1 RES     
    9050 H6        -121.7823   -43.5257    63.7056 H6            1 RES     
    9051 H6        -122.1287   -44.2736    65.3023 H6            1 RES     
    9052 H6        -124.1943   -43.9271    63.0087 H6            1 RES     
    9053 H6        -124.4047   -44.9700    64.4541 H6            1 RES     
    9054 H6        -122.3164   -45.2557    62.1630 H6            1 RES     
    9055 H6        -123.8473   -46.1878    62.2941 H6            1 RES     
    9056 H6        -121.9092   -47.5364    63.0112 H6            1 RES     
    9057 H6        -123.0917   -47.2556    64.3344 H6            1 RES     
    9058 H6        -121.5194   -46.3533    64.3139 H6            1 RES     
    9059 H6        -125.9069   -40.3949    64.9550 H6            1 RES     
    9060 H6        -125.5021   -39.0387    66.0742 H6            1 RES     
    9061 H6        -123.2842   -38.8166    65.4529 H6            1 RES     
    9062 H6        -123.3228   -39.9713    64.1498 H6            1 RES     
    9063 H6        -123.1440   -37.7315    63.5743 H6            1 RES     
    9064 H6        -124.7916   -37.2946    64.0521 H6            1 RES     
    9065 H6        -125.6641   -38.5764    62.0732 H6            1 RES     
    9066 H6        -124.1113   -39.4802    61.9086 H6            1 RES     
    9067 H6        -122.8233   -37.5062    61.3881 H6            1 RES     
    9068 H6        -124.2623   -36.4268    61.5121 H6            1 RES     
    9069 H6        -125.2187   -37.4391    59.4711 H6            1 RES     
    9070 H6        -123.8916   -38.6677    59.4055 H6            1 RES     
    9071 H6        -122.1724   -36.8982    59.1608 H6            1 RES     
    9072 H6        -123.4261   -35.6078    59.2713 H6            1 RES     
    9073 H6        -124.4518   -36.3990    57.1481 H6            1 RES     
    9074 H6        -123.2190   -37.7262    57.0352 H6            1 RES     
    9075 H6        -122.7075   -36.0018    56.9411 H6            1 RES     
    9076 C0        -121.7648   -41.6158    79.8194 C0            1 RES     
    9077 C1        -122.7146   -40.8421    80.4263 C1            1 RES     
    9078 C1        -123.9302   -41.4227    80.4711 C1            1 RES     
    9079 C1        -123.9338   -42.5694    79.8666 C1            1 RES     
    9080 C1        -122.6004   -42.8596    79.3111 C1            1 RES     
    9081 C1        -123.0621   -42.8502    77.8616 C1            1 RES     
    9082 C1        -124.4024   -42.9730    77.6344 C1            1 RES     
    9083 S2        -125.3617   -43.3056    79.1508 S2            1 RES     
    9084 C1        -125.0435   -42.7887    76.2651 C1            1 RES     
    9085 C1        -124.2621   -42.8124    75.0724 C1            1 RES     
    9086 N3        -124.8244   -42.6239    73.8434 N3            1 RES     
    9087 C1        -126.1432   -42.3826    73.6706 C1            1 RES     
    9088 C1        -126.9659   -42.3230    74.7885 C1            1 RES     
    9089 C1        -126.4203   -42.5338    76.0914 C1            1 RES     
    9090 N3        -127.3243   -42.4383    77.1070 N3            1 RES     
    9091 S2        -128.7386   -42.1062    76.3107 S2            1 RES     
    9092 N3        -128.2943   -42.0631    74.7206 N3            1 RES     
    9093 S2        -125.1262   -40.4332    81.0970 S2            1 RES     
    9094 C1        -124.0378   -39.1619    81.3550 C1            1 RES     
    9095 C1        -122.7634   -39.5199    80.8986 C1            1 RES     
    9096 C0        -120.6503   -41.9331    80.9292 C0            1 RES     
    9097 C0        -120.3269   -41.8275    82.5036 C0            1 RES     
    9098 C0        -120.5372   -40.4269    83.1607 C0            1 RES     
    9099 C0        -121.5418   -40.5028    84.3260 C0            1 RES     
    9100 C0        -121.9436   -39.1334    84.9031 C0            1 RES     
    9101 C0        -122.8562   -39.3411    86.1268 C0            1 RES     
    9102 C0        -123.4680   -38.0344    86.6470 C0            1 RES     
    9103 C0        -124.3331   -38.2998    87.8813 C0            1 RES     
    9104 C0        -118.8019   -42.2709    82.6316 C0            1 RES     
    9105 C0        -117.9482   -42.3455    83.9364 C0            1 RES     
    9106 C0        -117.2906   -41.0260    84.4451 C0            1 RES     
    9107 C0        -115.9682   -41.3084    85.2224 C0            1 RES     
    9108 C0        -115.2206   -40.0310    85.6581 C0            1 RES     
    9109 C0        -113.7155   -40.2491    85.9621 C0            1 RES     
    9110 C0        -113.4016   -41.2715    87.0641 C0            1 RES     
    9111 C0        -111.8880   -41.3639    87.3010 C0            1 RES     
    9112 C0        -120.9107   -40.8254    78.7153 C0            1 RES     
    9113 C0        -119.5558   -41.3386    77.9490 C0            1 RES     
    9114 C0        -118.3566   -41.6340    78.9367 C0            1 RES     
    9115 C0        -116.9503   -41.8050    78.3713 C0            1 RES     
    9116 C0        -115.8265   -41.9248    79.4164 C0            1 RES     
    9117 C0        -115.8264   -43.2804    80.1529 C0            1 RES     
    9118 C0        -114.4581   -43.6010    80.7813 C0            1 RES     
    9119 C0        -114.0710   -42.6717    81.9187 C0            1 RES     
    9120 C0        -119.6647   -42.3955    76.7575 C0            1 RES     
    9121 C0        -118.5739   -42.1377    75.6495 C0            1 RES     
    9122 C0        -118.5209   -42.8866    74.2894 C0            1 RES     
    9123 C0        -117.7494   -44.2439    74.1975 C0            1 RES     
    9124 C0        -117.1066   -44.3537    72.7798 C0            1 RES     
    9125 C0        -116.2681   -45.6134    72.4731 C0            1 RES     
    9126 C0        -115.5146   -45.4094    71.1347 C0            1 RES     
    9127 C0        -114.6955   -46.6244    70.7015 C0            1 RES     
    9128 H4        -122.3839   -42.6638    77.0707 H4            1 RES     
    9129 H5        -123.2019   -43.0034    75.1082 H5            1 RES     
    9130 H4        -121.9386   -38.8251    80.8964 H4            1 RES     
    9131 H6        -120.3845   -42.9857    80.6931 H6            1 RES     
    9132 H6        -119.8750   -41.2266    80.7110 H6            1 RES     
    9133 H6        -120.9432   -42.5795    83.0437 H6            1 RES     
    9134 H6        -119.5916   -40.0006    83.5409 H6            1 RES     
    9135 H6        -120.8364   -39.6956    82.4189 H6            1 RES     
    9136 H6        -122.4733   -40.9951    83.9696 H6            1 RES     
    9137 H6        -121.0881   -41.1285    85.1262 H6            1 RES     
    9138 H6        -121.0482   -38.5495    85.2107 H6            1 RES     
    9139 H6        -122.4866   -38.5659    84.1152 H6            1 RES     
    9140 H6        -122.2599   -39.8213    86.9349 H6            1 RES     
    9141 H6        -123.6926   -40.0202    85.8519 H6            1 RES     
    9142 H6        -122.6704   -37.3089    86.9151 H6            1 RES     
    9143 H6        -124.1064   -37.5890    85.8526 H6            1 RES     
    9144 H6        -125.1368   -39.0305    87.6453 H6            1 RES     
    9145 H6        -123.7104   -38.7050    88.7078 H6            1 RES     
    9146 H6        -124.8058   -37.3558    88.2249 H6            1 RES     
    9147 H6        -118.7869   -43.3089    82.2327 H6            1 RES     
    9148 H6        -118.1829   -41.6565    81.9404 H6            1 RES     
    9149 H6        -118.4418   -42.9150    84.7495 H6            1 RES     
    9150 H6        -117.0836   -42.9626    83.6036 H6            1 RES     
    9151 H6        -116.9923   -40.4165    83.5623 H6            1 RES     
    9152 H6        -118.0016   -40.4378    85.0601 H6            1 RES     
    9153 H6        -116.1422   -41.9636    86.1019 H6            1 RES     
    9154 H6        -115.2941   -41.8416    84.5353 H6            1 RES     
    9155 H6        -115.2398   -39.2988    84.8213 H6            1 RES     
    9156 H6        -115.7420   -39.5736    86.5256 H6            1 RES     
    9157 H6        -113.2814   -39.2669    86.2534 H6            1 RES     
    9158 H6        -113.2071   -40.5770    85.0278 H6            1 RES     
    9159 H6        -113.7697   -42.2742    86.7604 H6            1 RES     
    9160 H6        -113.8948   -40.9726    88.0122 H6            1 RES     
    9161 H6        -111.4852   -40.3840    87.6374 H6            1 RES     
    9162 H6        -111.3598   -41.6655    86.3703 H6            1 RES     
    9163 H6        -111.6703   -42.1191    88.0859 H6            1 RES     
    9164 H6        -121.6229   -40.5009    77.9252 H6            1 RES     
    9165 H6        -120.5854   -39.8745    79.1960 H6            1 RES     
    9166 H6        -119.2801   -40.3985    77.4237 H6            1 RES     
    9167 H6        -118.5652   -42.5536    79.5155 H6            1 RES     
    9168 H6        -118.2541   -40.7404    79.5889 H6            1 RES     
    9169 H6        -116.8925   -42.7416    77.7892 H6            1 RES     
    9170 H6        -116.7337   -40.9100    77.7487 H6            1 RES     
    9171 H6        -114.8860   -41.8730    78.8280 H6            1 RES     
    9172 H6        -115.8311   -41.0689    80.1277 H6            1 RES     
    9173 H6        -115.9963   -44.0857    79.4072 H6            1 RES     
    9174 H6        -116.6448   -43.3325    80.9016 H6            1 RES     
    9175 H6        -113.6758   -43.5572    79.9926 H6            1 RES     
    9176 H6        -114.4822   -44.6382    81.1804 H6            1 RES     
    9177 H6        -113.0702   -42.9577    82.3079 H6            1 RES     
    9178 H6        -114.8111   -42.7971    82.7219 H6            1 RES     
    9179 H6        -114.0326   -41.6125    81.5918 H6            1 RES     
    9180 H6        -119.6885   -43.4401    77.1382 H6            1 RES     
    9181 H6        -120.5918   -42.1935    76.1970 H6            1 RES     
    9182 H6        -118.7430   -41.0760    75.3678 H6            1 RES     
    9183 H6        -117.5454   -42.1754    75.9925 H6            1 RES     
    9184 H6        -117.8937   -42.1810    73.6993 H6            1 RES     
    9185 H6        -119.4989   -42.9241    73.7665 H6            1 RES     
    9186 H6        -118.4230   -45.0966    74.4318 H6            1 RES     
    9187 H6        -116.9038   -44.2545    74.9194 H6            1 RES     
    9188 H6        -116.4126   -43.4880    72.6839 H6            1 RES     
    9189 H6        -117.8921   -44.2585    71.9995 H6            1 RES     
    9190 H6        -116.9361   -46.4995    72.4109 H6            1 RES     
    9191 H6        -115.5155   -45.7833    73.2735 H6            1 RES     
    9192 H6        -114.8166   -44.5483    71.2406 H6            1 RES     
    9193 H6        -116.2363   -45.1739    70.3228 H6            1 RES     
    9194 H6        -115.3598   -47.4935    70.5153 H6            1 RES     
    9195 H6        -113.9397   -46.8887    71.4701 H6            1 RES     
    9196 H6        -114.1605   -46.3863    69.7546 H6            1 RES     
    9197 C0        -125.4553   -30.1466    82.5812 C0            1 RES     
    9198 C1        -126.7763   -30.2736    82.2529 C1            1 RES     
    9199 C1        -127.4391   -31.1542    83.0287 C1            1 RES     
    9200 C1        -126.6483   -31.7309    83.8787 C1            1 RES     
    9201 C1        -125.2690   -31.2417    83.7082 C1            1 RES     
    9202 C1        -124.7066   -32.5917    83.2891 C1            1 RES     
    9203 C1        -125.4586   -33.6947    83.5734 C1            1 RES     
    9204 S2        -126.9359   -33.3192    84.5770 S2            1 RES     
    9205 C1        -125.1353   -35.0895    83.0540 C1            1 RES     
    9206 C1        -123.8494   -35.4021    82.5225 C1            1 RES     
    9207 N3        -123.5585   -36.6421    82.0326 N3            1 RES     
    9208 C1        -124.4631   -37.6460    81.9962 C1            1 RES     
    9209 C1        -125.7452   -37.4107    82.4768 C1            1 RES     
    9210 C1        -126.0849   -36.1324    83.0156 C1            1 RES     
    9211 N3        -127.3743   -36.0217    83.4431 N3            1 RES     
    9212 S2        -127.9969   -37.5241    83.1275 S2            1 RES     
    9213 N3        -126.7277   -38.3442    82.4610 N3            1 RES     
    9214 S2        -129.0234   -31.4106    82.5538 S2            1 RES     
    9215 C1        -128.8898   -30.3158    81.2690 C1            1 RES     
    9216 C1        -127.5875   -29.8053    81.2057 C1            1 RES     
    9217 C0        -125.2398   -28.6262    83.0463 C0            1 RES     
    9218 C0        -126.0178   -27.2684    83.4279 C0            1 RES     
    9219 C0        -127.0840   -26.7703    82.4019 C0            1 RES     
    9220 C0        -128.4723   -26.6439    83.0573 C0            1 RES     
    9221 C0        -129.6117   -26.3389    82.0682 C0            1 RES     
    9222 C0        -130.9229   -26.1239    82.8479 C0            1 RES     
    9223 C0        -132.1512   -26.0123    81.9361 C0            1 RES     
    9224 C0        -133.4144   -25.7642    82.7637 C0            1 RES     
    9225 C0        -124.8671   -26.1794    83.5968 C0            1 RES     
    9226 C0        -125.0429   -24.6699    83.9536 C0            1 RES     
    9227 C0        -125.3817   -23.6880    82.7902 C0            1 RES     
    9228 C0        -124.8300   -22.2563    83.0707 C0            1 RES     
    9229 C0        -125.0456   -21.2696    81.9044 C0            1 RES     
    9230 C0        -124.0998   -20.0407    81.9297 C0            1 RES     
    9231 C0        -124.1789   -19.1672    83.1903 C0            1 RES     
    9232 C0        -123.2324   -17.9646    83.0754 C0            1 RES     
    9233 C0        -124.4732   -30.2438    81.3167 C0            1 RES     
    9234 C0        -122.8674   -29.9179    81.2753 C0            1 RES     
    9235 C0        -122.5259   -28.4232    81.6628 C0            1 RES     
    9236 C0        -121.1336   -27.8758    81.3655 C0            1 RES     
    9237 C0        -120.9448   -26.3702    81.6248 C0            1 RES     
    9238 C0        -120.8962   -26.0155    83.1255 C0            1 RES     
    9239 C0        -120.2071   -24.6630    83.3816 C0            1 RES     
    9240 C0        -120.9765   -23.4692    82.8431 C0            1 RES     
    9241 C0        -121.8234   -30.9740    81.8612 C0            1 RES     
    9242 C0        -120.4771   -30.9773    81.0418 C0            1 RES     
    9243 C0        -119.3302   -32.0030    81.2562 C0            1 RES     
    9244 C0        -118.2342   -31.7056    82.3316 C0            1 RES     
    9245 C0        -116.8756   -32.2850    81.8280 C0            1 RES     
    9246 C0        -115.6372   -32.0819    82.7276 C0            1 RES     
    9247 C0        -114.3655   -32.4890    81.9415 C0            1 RES     
    9248 C0        -113.0796   -32.3839    82.7602 C0            1 RES     
    9249 H4        -123.8166   -32.6630    82.7207 H4            1 RES     
    9250 H5        -123.0600   -34.6682    82.5137 H5            1 RES     
    9251 H4        -127.2660   -29.1501    80.4118 H4            1 RES     
    9252 H6        -124.5212   -28.7427    83.8857 H6            1 RES     
    9253 H6        -124.8248   -28.1575    82.1769 H6            1 RES     
    9254 H6        -126.5022   -27.4037    84.4199 H6            1 RES     
    9255 H6        -126.8135   -25.7929    81.9638 H6            1 RES     
    9256 H6        -127.1080   -27.4135    81.5300 H6            1 RES     
    9257 H6        -128.7232   -27.6029    83.5618 H6            1 RES     
    9258 H6        -128.4150   -25.8391    83.8232 H6            1 RES     
    9259 H6        -129.3899   -25.4282    81.4694 H6            1 RES     
    9260 H6        -129.7175   -27.2039    81.3767 H6            1 RES     
    9261 H6        -130.8246   -25.1967    83.4560 H6            1 RES     
    9262 H6        -131.0885   -26.9826    83.5346 H6            1 RES     
    9263 H6        -132.0257   -25.1795    81.2115 H6            1 RES     
    9264 H6        -132.2746   -26.9632    81.3725 H6            1 RES     
    9265 H6        -133.5620   -26.5791    83.5053 H6            1 RES     
    9266 H6        -133.3364   -24.7963    83.3042 H6            1 RES     
    9267 H6        -134.3035   -25.7278    82.0997 H6            1 RES     
    9268 H6        -124.2293   -26.5832    84.4136 H6            1 RES     
    9269 H6        -124.2375   -26.1670    82.6793 H6            1 RES     
    9270 H6        -125.6762   -24.5032    84.8481 H6            1 RES     
    9271 H6        -124.0071   -24.3869    84.2474 H6            1 RES     
    9272 H6        -124.8569   -24.0342    81.8712 H6            1 RES     
    9273 H6        -126.4724   -23.6675    82.5911 H6            1 RES     
    9274 H6        -125.2490   -21.8323    84.0075 H6            1 RES     
    9275 H6        -123.7411   -22.3468    83.2014 H6            1 RES     
    9276 H6        -124.8161   -21.7869    80.9472 H6            1 RES     
    9277 H6        -126.1104   -20.9547    81.8770 H6            1 RES     
    9278 H6        -124.3372   -19.4103    81.0442 H6            1 RES     
    9279 H6        -123.0509   -20.3959    81.8176 H6            1 RES     
    9280 H6        -123.8803   -19.7635    84.0783 H6            1 RES     
    9281 H6        -125.2150   -18.7954    83.3312 H6            1 RES     
    9282 H6        -123.5185   -17.3239    82.2132 H6            1 RES     
    9283 H6        -122.1816   -18.3002    82.9365 H6            1 RES     
    9284 H6        -123.2830   -17.3498    83.9991 H6            1 RES     
    9285 H6        -124.6061   -31.2578    80.8797 H6            1 RES     
    9286 H6        -124.8911   -29.5577    80.5449 H6            1 RES     
    9287 H6        -122.6994   -29.9837    80.1785 H6            1 RES     
    9288 H6        -122.6874   -28.2703    82.7466 H6            1 RES     
    9289 H6        -123.1836   -27.7759    81.0439 H6            1 RES     
    9290 H6        -120.3911   -28.3677    82.0181 H6            1 RES     
    9291 H6        -120.9307   -28.0573    80.2878 H6            1 RES     
    9292 H6        -119.9460   -26.1331    81.2009 H6            1 RES     
    9293 H6        -121.6995   -25.7596    81.0808 H6            1 RES     
    9294 H6        -120.2610   -26.7649    83.6435 H6            1 RES     
    9295 H6        -121.9078   -26.0543    83.5817 H6            1 RES     
    9296 H6        -119.1931   -24.6788    82.9260 H6            1 RES     
    9297 H6        -120.0861   -24.5255    84.4780 H6            1 RES     
    9298 H6        -120.4102   -22.5366    83.0538 H6            1 RES     
    9299 H6        -121.9397   -23.4243    83.3710 H6            1 RES     
    9300 H6        -121.1398   -23.5428    81.7485 H6            1 RES     
    9301 H6        -121.6883   -30.8503    82.9581 H6            1 RES     
    9302 H6        -122.2022   -31.9883    81.6555 H6            1 RES     
    9303 H6        -120.8141   -31.1616    79.9990 H6            1 RES     
    9304 H6        -119.9548   -30.0273    81.0029 H6            1 RES     
    9305 H6        -118.7904   -31.9015    80.2878 H6            1 RES     
    9306 H6        -119.6793   -33.0557    81.2935 H6            1 RES     
    9307 H6        -118.5341   -32.1109    83.3223 H6            1 RES     
    9308 H6        -118.0820   -30.6087    82.4314 H6            1 RES     
    9309 H6        -116.6511   -31.7653    80.8690 H6            1 RES     
    9310 H6        -116.9813   -33.3713    81.6192 H6            1 RES     
    9311 H6        -115.7391   -32.6987    83.6465 H6            1 RES     
    9312 H6        -115.5392   -31.0134    83.0182 H6            1 RES     
    9313 H6        -114.2602   -31.8235    81.0550 H6            1 RES     
    9314 H6        -114.4589   -33.5362    81.5808 H6            1 RES     
    9315 H6        -113.1091   -33.0844    83.6204 H6            1 RES     
    9316 H6        -112.9251   -31.3476    83.1263 H6            1 RES     
    9317 H6        -112.2130   -32.6588    82.1173 H6            1 RES     
    9318 C0        -133.9563   -29.2920    73.6486 C0            1 RES     
    9319 C1        -134.6312   -30.4542    73.8985 C1            1 RES     
    9320 C1        -135.2452   -30.4700    75.0983 C1            1 RES     
    9321 C1        -135.0010   -29.3906    75.7735 C1            1 RES     
    9322 C1        -134.1130   -28.4980    75.0083 C1            1 RES     
    9323 C1        -132.9654   -28.5771    76.0038 C1            1 RES     
    9324 C1        -133.2584   -29.0324    77.2567 C1            1 RES     
    9325 S2        -135.0443   -29.2911    77.5289 S2            1 RES     
    9326 C1        -132.1998   -29.3536    78.3036 C1            1 RES     
    9327 C1        -130.8602   -28.8831    78.1707 C1            1 RES     
    9328 N3        -129.8993   -29.1864    79.0910 N3            1 RES     
    9329 C1        -130.1390   -29.9630    80.1712 C1            1 RES     
    9330 C1        -131.4162   -30.4769    80.3572 C1            1 RES     
    9331 C1        -132.4552   -30.1677    79.4274 C1            1 RES     
    9332 N3        -133.6591   -30.7400    79.7113 N3            1 RES     
    9333 S2        -133.3468   -31.5832    81.1027 S2            1 RES     
    9334 N3        -131.7489   -31.2838    81.3941 N3            1 RES     
    9335 S2        -135.9667   -31.9347    75.4662 S2            1 RES     
    9336 C1        -135.4895   -32.6201    73.9932 C1            1 RES     
    9337 C1        -134.7289   -31.7016    73.2595 C1            1 RES     
    9338 C0        -134.6514   -28.6213    72.3674 C0            1 RES     
    9339 C0        -135.9296   -28.7169    71.3919 C0            1 RES     
    9340 C0        -136.2294   -30.1216    70.7800 C0            1 RES     
    9341 C0        -137.6479   -30.5981    71.1458 C0            1 RES     
    9342 C0        -137.9503   -32.0513    70.7380 C0            1 RES     
    9343 C0        -139.4238   -32.3749    71.0505 C0            1 RES     
    9344 C0        -139.7642   -33.8587    70.8638 C0            1 RES     
    9345 C0        -141.2458   -34.1109    71.1532 C0            1 RES     
    9346 C0        -135.6306   -27.6652    70.2329 C0            1 RES     
    9347 C0        -136.5288   -27.3434    68.9974 C0            1 RES     
    9348 C0        -136.4145   -28.2829    67.7578 C0            1 RES     
    9349 C0        -136.7288   -27.5226    66.4326 C0            1 RES     
    9350 C0        -136.5285   -28.3785    65.1647 C0            1 RES     
    9351 C0        -136.3362   -27.5531    63.8657 C0            1 RES     
    9352 C0        -137.4862   -26.6006    63.5074 C0            1 RES     
    9353 C0        -137.1978   -25.8779    62.1845 C0            1 RES     
    9354 C0        -132.4590   -29.5262    73.1228 C0            1 RES     
    9355 C0        -131.4318   -28.4056    72.5102 C0            1 RES     
    9356 C0        -131.9817   -27.7064    71.2026 C0            1 RES     
    9357 C0        -131.0284   -26.8878    70.3380 C0            1 RES     
    9358 C0        -131.6106   -26.3840    69.0050 C0            1 RES     
    9359 C0        -132.6273   -25.2373    69.1830 C0            1 RES     
    9360 C0        -132.8015   -24.4094    67.8969 C0            1 RES     
    9361 C0        -133.4493   -25.1747    66.7560 C0            1 RES     
    9362 C0        -130.6719   -27.3996    73.4895 C0            1 RES     
    9363 C0        -129.2277   -27.0534    72.9619 C0            1 RES     
    9364 C0        -128.1794   -26.2370    73.7670 C0            1 RES     
    9365 C0        -128.1824   -24.6769    73.6576 C0            1 RES     
    9366 C0        -126.7107   -24.1695    73.7664 C0            1 RES     
    9367 C0        -126.4716   -22.6480    73.6573 C0            1 RES     
    9368 C0        -124.9510   -22.3803    73.5269 C0            1 RES     
    9369 C0        -124.5930   -20.8959    73.4714 C0            1 RES     
    9370 H4        -131.9687   -28.3760    75.7096 H4            1 RES     
    9371 H5        -130.5737   -28.2521    77.3451 H5            1 RES     
    9372 H4        -134.2592   -31.9627    72.3245 H4            1 RES     
    9373 H6        -134.6208   -27.5418    72.6284 H6            1 RES     
    9374 H6        -134.0013   -28.8950    71.5610 H6            1 RES     
    9375 H6        -136.8263   -28.3621    71.9461 H6            1 RES     
    9376 H6        -136.1322   -30.1243    69.6795 H6            1 RES     
    9377 H6        -135.4746   -30.8397    71.0785 H6            1 RES     
    9378 H6        -137.7788   -30.5323    72.2484 H6            1 RES     
    9379 H6        -138.3741   -29.9122    70.6561 H6            1 RES     
    9380 H6        -137.7640   -32.2104    69.6530 H6            1 RES     
    9381 H6        -137.2814   -32.7252    71.3177 H6            1 RES     
    9382 H6        -140.0697   -31.7577    70.3864 H6            1 RES     
    9383 H6        -139.6438   -32.1079    72.1072 H6            1 RES     
    9384 H6        -139.5395   -34.1836    69.8254 H6            1 RES     
    9385 H6        -139.1544   -34.4645    71.5696 H6            1 RES     
    9386 H6        -141.5030   -33.7868    72.1850 H6            1 RES     
    9387 H6        -141.8795   -33.5509    70.4322 H6            1 RES     
    9388 H6        -141.4734   -35.1933    71.0575 H6            1 RES     
    9389 H6        -135.5367   -26.6937    70.7660 H6            1 RES     
    9390 H6        -134.6328   -27.8821    69.7905 H6            1 RES     
    9391 H6        -137.5811   -27.1230    69.2676 H6            1 RES     
    9392 H6        -136.0895   -26.3832    68.6449 H6            1 RES     
    9393 H6        -135.3567   -28.6182    67.6646 H6            1 RES     
    9394 H6        -137.0621   -29.1756    67.8733 H6            1 RES     
    9395 H6        -137.7522   -27.0918    66.4406 H6            1 RES     
    9396 H6        -136.0147   -26.6887    66.3584 H6            1 RES     
    9397 H6        -135.5905   -28.9664    65.2709 H6            1 RES     
    9398 H6        -137.3718   -29.0940    65.0630 H6            1 RES     
    9399 H6        -136.1917   -28.2687    63.0262 H6            1 RES     
    9400 H6        -135.4034   -26.9529    63.9597 H6            1 RES     
    9401 H6        -137.6020   -25.8366    64.3051 H6            1 RES     
    9402 H6        -138.4337   -27.1693    63.4056 H6            1 RES     
    9403 H6        -137.1055   -26.6092    61.3525 H6            1 RES     
    9404 H6        -136.2547   -25.2930    62.2510 H6            1 RES     
    9405 H6        -138.0261   -25.1780    61.9440 H6            1 RES     
    9406 H6        -131.9101   -30.0563    73.9319 H6            1 RES     
    9407 H6        -132.5310   -30.2785    72.3043 H6            1 RES     
    9408 H6        -130.6178   -29.0788    72.1642 H6            1 RES     
    9409 H6        -132.8154   -27.0270    71.4629 H6            1 RES     
    9410 H6        -132.3007   -28.5203    70.5168 H6            1 RES     
    9411 H6        -130.7282   -25.9717    70.8766 H6            1 RES     
    9412 H6        -130.1591   -27.5377    70.0987 H6            1 RES     
    9413 H6        -130.7403   -25.9662    68.4560 H6            1 RES     
    9414 H6        -132.0297   -27.2162    68.3967 H6            1 RES     
    9415 H6        -132.2246   -24.5235    69.9325 H6            1 RES     
    9416 H6        -133.5996   -25.6161    69.5628 H6            1 RES     
    9417 H6        -131.8079   -24.0354    67.5671 H6            1 RES     
    9418 H6        -133.4397   -23.5278    68.1231 H6            1 RES     
    9419 H6        -133.5266   -24.5166    65.8639 H6            1 RES     
    9420 H6        -134.4625   -25.4586    67.0742 H6            1 RES     
    9421 H6        -132.8653   -26.0763    66.4794 H6            1 RES     
    9422 H6        -131.2954   -26.5096    73.7259 H6            1 RES     
    9423 H6        -130.4365   -27.9348    74.4236 H6            1 RES     
    9424 H6        -128.7559   -28.0519    72.8374 H6            1 RES     
    9425 H6        -129.1891   -26.6012    71.9766 H6            1 RES     
    9426 H6        -127.2460   -26.5410    73.2418 H6            1 RES     
    9427 H6        -128.0580   -26.5835    74.8142 H6            1 RES     
    9428 H6        -128.8498   -24.2293    74.4257 H6            1 RES     
    9429 H6        -128.5417   -24.3632    72.6532 H6            1 RES     
    9430 H6        -126.1575   -24.6323    72.9178 H6            1 RES     
    9431 H6        -126.2560   -24.5274    74.7151 H6            1 RES     
    9432 H6        -126.8786   -22.1414    74.5589 H6            1 RES     
    9433 H6        -126.9753   -22.2395    72.7544 H6            1 RES     
    9434 H6        -124.5794   -22.8555    72.5909 H6            1 RES     
    9435 H6        -124.4090   -22.8330    74.3853 H6            1 RES     
    9436 H6        -124.8826   -20.3915    74.4165 H6            1 RES     
    9437 H6        -125.0915   -20.3986    72.6136 H6            1 RES     
    9438 H6        -123.4920   -20.7895    73.3436 H6            1 RES     
    9439 C0        -134.7363   -41.4183    71.3831 C0            1 RES     
    9440 C1        -134.9326   -41.8522    72.6645 C1            1 RES     
    9441 C1        -136.0913   -41.4240    73.2037 C1            1 RES     
    9442 C1        -136.7325   -40.6392    72.3953 C1            1 RES     
    9443 C1        -135.9721   -40.4588    71.1463 C1            1 RES     
    9444 C1        -135.7512   -38.9670    71.3467 C1            1 RES     
    9445 C1        -136.5561   -38.3343    72.2494 C1            1 RES     
    9446 S2        -137.8754   -39.4066    72.9126 S2            1 RES     
    9447 C1        -136.3395   -36.8977    72.7069 C1            1 RES     
    9448 C1        -135.4955   -36.0080    71.9791 C1            1 RES     
    9449 N3        -135.2764   -34.7269    72.3950 N3            1 RES     
    9450 C1        -135.8196   -34.2206    73.5246 C1            1 RES     
    9451 C1        -136.6366   -35.0348    74.2989 C1            1 RES     
    9452 C1        -136.9067   -36.3759    73.8888 C1            1 RES     
    9453 N3        -137.7110   -37.0772    74.7368 N3            1 RES     
    9454 S2        -138.0346   -35.9762    75.9317 S2            1 RES     
    9455 N3        -137.2071   -34.6274    75.4588 N3            1 RES     
    9456 S2        -136.2809   -41.8439    74.8127 S2            1 RES     
    9457 C1        -134.7917   -42.6491    74.8512 C1            1 RES     
    9458 C1        -134.1492   -42.5310    73.6128 C1            1 RES     
    9459 C0        -134.6840   -42.7268    70.4559 C0            1 RES     
    9460 C0        -134.9441   -44.3164    70.4475 C0            1 RES     
    9461 C0        -134.2605   -45.1353    71.5875 C0            1 RES     
    9462 C0        -135.3002   -45.9144    72.4151 C0            1 RES     
    9463 C0        -134.7257   -46.5957    73.6702 C0            1 RES     
    9464 C0        -135.8276   -47.4317    74.3489 C0            1 RES     
    9465 C0        -135.4039   -47.9858    75.7150 C0            1 RES     
    9466 C0        -136.5236   -48.8347    76.3215 C0            1 RES     
    9467 C0        -134.4125   -44.8034    69.0266 C0            1 RES     
    9468 C0        -134.4014   -46.2633    68.4742 C0            1 RES     
    9469 C0        -133.2153   -47.1849    68.8939 C0            1 RES     
    9470 C0        -132.9030   -48.2503    67.7985 C0            1 RES     
    9471 C0        -131.6702   -49.1222    68.1155 C0            1 RES     
    9472 C0        -131.0440   -49.8109    66.8750 C0            1 RES     
    9473 C0        -131.9792   -50.7411    66.0887 C0            1 RES     
    9474 C0        -131.2333   -51.3934    64.9166 C0            1 RES     
    9475 C0        -133.2814   -40.7877    71.1407 C0            1 RES     
    9476 C0        -132.6013   -40.3740    69.7080 C0            1 RES     
    9477 C0        -132.4419   -41.5974    68.7186 C0            1 RES     
    9478 C0        -131.5477   -41.4520    67.4916 C0            1 RES     
    9479 C0        -131.3232   -42.7402    66.6795 C0            1 RES     
    9480 C0        -132.5655   -43.1722    65.8731 C0            1 RES     
    9481 C0        -132.2042   -44.1046    64.7027 C0            1 RES     
    9482 C0        -131.6753   -45.4604    65.1374 C0            1 RES     
    9483 C0        -133.0415   -39.0256    68.9754 C0            1 RES     
    9484 C0        -131.8366   -38.3603    68.2078 C0            1 RES     
    9485 C0        -131.8986   -36.9605    67.5366 C0            1 RES     
    9486 C0        -132.4089   -36.8450    66.0628 C0            1 RES     
    9487 C0        -131.6343   -35.6873    65.3594 C0            1 RES     
    9488 C0        -131.9613   -35.4091    63.8762 C0            1 RES     
    9489 C0        -130.9176   -34.4180    63.3025 C0            1 RES     
    9490 C0        -131.1808   -34.0242    61.8498 C0            1 RES     
    9491 H4        -134.9486   -38.4628    70.8756 H4            1 RES     
    9492 H5        -135.0219   -36.3190    71.0622 H5            1 RES     
    9493 H4        -133.1516   -42.9052    73.4460 H4            1 RES     
    9494 H6        -135.2207   -42.3845    69.5454 H6            1 RES     
    9495 H6        -133.6345   -42.8863    70.3112 H6            1 RES     
    9496 H6        -136.0412   -44.4967    70.4770 H6            1 RES     
    9497 H6        -133.5171   -45.8521    71.1953 H6            1 RES     
    9498 H6        -133.6511   -44.4913    72.2109 H6            1 RES     
    9499 H6        -136.0918   -45.2114    72.7563 H6            1 RES     
    9500 H6        -135.7604   -46.6788    71.7507 H6            1 RES     
    9501 H6        -133.8718   -47.2597    73.4107 H6            1 RES     
    9502 H6        -134.3651   -45.8054    74.3651 H6            1 RES     
    9503 H6        -136.0994   -48.2734    73.6732 H6            1 RES     
    9504 H6        -136.7275   -46.7977    74.5056 H6            1 RES     
    9505 H6        -134.4905   -48.6107    75.6170 H6            1 RES     
    9506 H6        -135.1870   -47.1378    76.4012 H6            1 RES     
    9507 H6        -137.4553   -48.2370    76.4240 H6            1 RES     
    9508 H6        -136.7310   -49.7157    75.6766 H6            1 RES     
    9509 H6        -136.2249   -49.1957    77.3280 H6            1 RES     
    9510 H6        -135.0318   -44.2372    68.2968 H6            1 RES     
    9511 H6        -133.3641   -44.4564    68.8896 H6            1 RES     
    9512 H6        -135.3837   -46.7702    68.5592 H6            1 RES     
    9513 H6        -134.2324   -46.0906    67.3875 H6            1 RES     
    9514 H6        -132.2954   -46.5626    68.9743 H6            1 RES     
    9515 H6        -133.4095   -47.6618    69.8760 H6            1 RES     
    9516 H6        -133.7819   -48.8977    67.5945 H6            1 RES     
    9517 H6        -132.6660   -47.7054    66.8724 H6            1 RES     
    9518 H6        -130.8631   -48.4723    68.5191 H6            1 RES     
    9519 H6        -131.9333   -49.8668    68.8965 H6            1 RES     
    9520 H6        -130.1645   -50.3986    67.2198 H6            1 RES     
    9521 H6        -130.6711   -49.0244    66.1810 H6            1 RES     
    9522 H6        -132.8307   -50.1574    65.6796 H6            1 RES     
    9523 H6        -132.3692   -51.5394    66.7537 H6            1 RES     
    9524 H6        -130.3891   -52.0137    65.2882 H6            1 RES     
    9525 H6        -130.8306   -50.6212    64.2254 H6            1 RES     
    9526 H6        -131.9227   -52.0491    64.3435 H6            1 RES     
    9527 H6        -133.1983   -39.8989    71.8039 H6            1 RES     
    9528 H6        -132.5526   -41.5146    71.5668 H6            1 RES     
    9529 H6        -131.5721   -40.1424    70.0584 H6            1 RES     
    9530 H6        -133.4345   -41.9028    68.3368 H6            1 RES     
    9531 H6        -131.9443   -42.4081    69.2928 H6            1 RES     
    9532 H6        -132.0058   -40.7463    66.7764 H6            1 RES     
    9533 H6        -130.5538   -41.1033    67.8468 H6            1 RES     
    9534 H6        -130.5325   -42.4777    65.9450 H6            1 RES     
    9535 H6        -130.9362   -43.5673    67.3156 H6            1 RES     
    9536 H6        -133.0068   -42.2708    65.3974 H6            1 RES     
    9537 H6        -133.3380   -43.6208    66.5326 H6            1 RES     
    9538 H6        -131.4456   -43.6061    64.0608 H6            1 RES     
    9539 H6        -133.1139   -44.2739    64.0867 H6            1 RES     
    9540 H6        -131.4252   -46.0666    64.2403 H6            1 RES     
    9541 H6        -132.4737   -45.9693    65.6960 H6            1 RES     
    9542 H6        -130.7652   -45.3669    65.7646 H6            1 RES     
    9543 H6        -133.9503   -39.1765    68.3525 H6            1 RES     
    9544 H6        -133.2523   -38.2649    69.7444 H6            1 RES     
    9545 H6        -131.0624   -38.2482    68.9972 H6            1 RES     
    9546 H6        -131.3724   -38.9786    67.4468 H6            1 RES     
    9547 H6        -130.8123   -36.7278    67.4635 H6            1 RES     
    9548 H6        -132.3279   -36.1744    68.1917 H6            1 RES     
    9549 H6        -133.5112   -36.7029    66.0375 H6            1 RES     
    9550 H6        -132.1599   -37.7691    65.4968 H6            1 RES     
    9551 H6        -130.5570   -35.9675    65.3923 H6            1 RES     
    9552 H6        -131.7661   -34.7424    65.9293 H6            1 RES     
    9553 H6        -132.9852   -34.9848    63.7938 H6            1 RES     
    9554 H6        -131.9106   -36.3489    63.2844 H6            1 RES     
    9555 H6        -129.9090   -34.8874    63.3508 H6            1 RES     
    9556 H6        -130.8981   -33.4891    63.9126 H6            1 RES     
    9557 H6        -132.1484   -33.4881    61.7626 H6            1 RES     
    9558 H6        -131.1867   -34.9172    61.1908 H6            1 RES     
    9559 H6        -130.3724   -33.3414    61.5036 H6            1 RES     
    9560 C0        -129.4212   -45.0901    81.9213 C0            1 RES     
    9561 C1        -130.1839   -44.3676    82.7961 C1            1 RES     
    9562 C1        -131.4820   -44.7303    82.8015 C1            1 RES     
    9563 C1        -131.7239   -45.6505    81.9211 C1            1 RES     
    9564 C1        -130.4934   -45.9921    81.1862 C1            1 RES     
    9565 C1        -131.0120   -45.5099    79.8397 C1            1 RES     
    9566 C1        -132.3611   -45.3438    79.7154 C1            1 RES     
    9567 S2        -133.2941   -45.9173    81.1752 S2            1 RES     
    9568 C1        -133.0199   -44.6883    78.5087 C1            1 RES     
    9569 C1        -132.3121   -44.5120    77.2834 C1            1 RES     
    9570 N3        -132.8863   -43.9040    76.2050 N3            1 RES     
    9571 C1        -134.1450   -43.4114    76.2262 C1            1 RES     
    9572 C1        -134.8903   -43.5264    77.3930 C1            1 RES     
    9573 C1        -134.3332   -44.1731    78.5380 C1            1 RES     
    9574 N3        -135.1564   -44.2127    79.6235 N3            1 RES     
    9575 S2        -136.5209   -43.4474    79.0787 S2            1 RES     
    9576 N3        -136.1502   -43.0435    77.5207 N3            1 RES     
    9577 S2        -132.4459   -43.7681    83.7742 S2            1 RES     
    9578 C1        -131.1320   -42.8129    84.2524 C1            1 RES     
    9579 C1        -129.9674   -43.2362    83.6004 C1            1 RES     
    9580 C0        -128.3339   -45.8782    82.7995 C0            1 RES     
    9581 C0        -127.9243   -46.2630    84.3090 C0            1 RES     
    9582 C0        -127.8434   -45.0816    85.3265 C0            1 RES     
    9583 C0        -128.7900   -45.3081    86.5205 C0            1 RES     
    9584 C0        -128.9066   -44.1029    87.4709 C0            1 RES     
    9585 C0        -129.7844   -44.4855    88.6779 C0            1 RES     
    9586 C0        -130.1213   -43.2895    89.5771 C0            1 RES     
    9587 C0        -130.9625   -43.7374    90.7746 C0            1 RES     
    9588 C0        -126.5023   -46.9687    84.1725 C0            1 RES     
    9589 C0        -125.6176   -47.5374    85.3260 C0            1 RES     
    9590 C0        -124.7062   -46.5346    86.0981 C0            1 RES     
    9591 C0        -123.4236   -47.2325    86.6464 C0            1 RES     
    9592 C0        -122.4350   -46.2644    87.3289 C0            1 RES     
    9593 C0        -120.9831   -46.8015    87.4223 C0            1 RES     
    9594 C0        -120.8116   -48.1241    88.1837 C0            1 RES     
    9595 C0        -119.3314   -48.5252    88.2447 C0            1 RES     
    9596 C0        -128.4885   -44.1787    80.9874 C0            1 RES     
    9597 C0        -127.2876   -44.6772    79.9895 C0            1 RES     
    9598 C0        -126.1187   -45.4250    80.7481 C0            1 RES     
    9599 C0        -124.7953   -45.6628    80.0280 C0            1 RES     
    9600 C0        -123.6656   -46.2475    80.8949 C0            1 RES     
    9601 C0        -123.8802   -47.7340    81.2475 C0            1 RES     
    9602 C0        -122.5664   -48.4348    81.6385 C0            1 RES     
    9603 C0        -121.9633   -47.9298    82.9378 C0            1 RES     
    9604 C0        -127.6434   -45.3340    78.5787 C0            1 RES     
    9605 C0        -126.5762   -44.9650    77.4792 C0            1 RES     
    9606 C0        -126.7243   -45.3103    75.9717 C0            1 RES     
    9607 C0        -126.2201   -46.6979    75.4557 C0            1 RES     
    9608 C0        -125.6745   -46.5186    74.0047 C0            1 RES     
    9609 C0        -125.0965   -47.7659    73.3016 C0            1 RES     
    9610 C0        -124.3810   -47.3291    71.9985 C0            1 RES     
    9611 C0        -123.8196   -48.4961    71.1874 C0            1 RES     
    9612 H4        -130.3483   -45.2277    79.0650 H4            1 RES     
    9613 H5        -131.3044   -44.8769    77.1680 H5            1 RES     
    9614 H4        -129.0301   -42.7127    83.7026 H4            1 RES     
    9615 H6        -128.2770   -46.8544    82.2722 H6            1 RES     
    9616 H6        -127.4530   -45.2762    82.7019 H6            1 RES     
    9617 H6        -128.6425   -47.0225    84.6890 H6            1 RES     
    9618 H6        -126.8192   -44.9372    85.7144 H6            1 RES     
    9619 H6        -128.0372   -44.1361    84.8335 H6            1 RES     
    9620 H6        -129.8115   -45.5239    86.1369 H6            1 RES     
    9621 H6        -128.4224   -46.1949    87.0826 H6            1 RES     
    9622 H6        -127.9061   -43.7810    87.8350 H6            1 RES     
    9623 H6        -129.3720   -43.2599    86.9138 H6            1 RES     
    9624 H6        -129.2497   -45.2600    89.2724 H6            1 RES     
    9625 H6        -130.7430   -44.9162    88.3147 H6            1 RES     
    9626 H6        -129.1926   -42.8066    89.9495 H6            1 RES     
    9627 H6        -130.7031   -42.5447    88.9907 H6            1 RES     
    9628 H6        -131.8968   -44.2331    90.4323 H6            1 RES     
    9629 H6        -130.3873   -44.4503    91.4038 H6            1 RES     
    9630 H6        -131.2376   -42.8595    91.3962 H6            1 RES     
    9631 H6        -126.6965   -47.8453    83.5162 H6            1 RES     
    9632 H6        -125.8136   -46.2985    83.6111 H6            1 RES     
    9633 H6        -126.1692   -48.2189    86.0044 H6            1 RES     
    9634 H6        -124.8971   -48.1728    84.7635 H6            1 RES     
    9635 H6        -124.3421   -45.7639    85.3815 H6            1 RES     
    9636 H6        -125.2680   -46.0292    86.9096 H6            1 RES     
    9637 H6        -123.6741   -48.0660    87.3361 H6            1 RES     
    9638 H6        -122.8913   -47.6600    85.7835 H6            1 RES     
    9639 H6        -122.3581   -45.3380    86.7186 H6            1 RES     
    9640 H6        -122.8230   -45.9833    88.3310 H6            1 RES     
    9641 H6        -120.3632   -46.0220    87.9183 H6            1 RES     
    9642 H6        -120.5871   -46.9395    86.3912 H6            1 RES     
    9643 H6        -121.3711   -48.9304    87.6642 H6            1 RES     
    9644 H6        -121.1974   -48.0199    89.2190 H6            1 RES     
    9645 H6        -118.7405   -47.7551    88.7865 H6            1 RES     
    9646 H6        -118.9111   -48.6425    87.2221 H6            1 RES     
    9647 H6        -119.2200   -49.4917    88.7806 H6            1 RES     
    9648 H6        -129.1647   -43.5376    80.3803 H6            1 RES     
    9649 H6        -127.9724   -43.4628    81.6673 H6            1 RES     
    9650 H6        -126.8686   -43.6877    79.7050 H6            1 RES     
    9651 H6        -126.4656   -46.4208    81.0831 H6            1 RES     
    9652 H6        -125.8239   -44.7740    81.5988 H6            1 RES     
    9653 H6        -124.9373   -46.4001    79.2183 H6            1 RES     
    9654 H6        -124.4471   -44.6796    79.6439 H6            1 RES     
    9655 H6        -122.7597   -46.1914    80.2548 H6            1 RES     
    9656 H6        -123.4801   -45.6309    81.8025 H6            1 RES     
    9657 H6        -124.2293   -48.2646    80.3364 H6            1 RES     
    9658 H6        -124.6588   -47.8543    82.0299 H6            1 RES     
    9659 H6        -121.8267   -48.3054    80.8188 H6            1 RES     
    9660 H6        -122.7621   -49.5230    81.7526 H6            1 RES     
    9661 H6        -121.0151   -48.4718    83.1427 H6            1 RES     
    9662 H6        -122.6760   -48.1473    83.7461 H6            1 RES     
    9663 H6        -121.7463   -46.8428    82.8974 H6            1 RES     
    9664 H6        -127.8410   -46.4243    78.6732 H6            1 RES     
    9665 H6        -128.5426   -44.8367    78.1803 H6            1 RES     
    9666 H6        -126.5604   -43.8540    77.5024 H6            1 RES     
    9667 H6        -125.5574   -45.2637    77.7021 H6            1 RES     
    9668 H6        -126.0062   -44.5828    75.5307 H6            1 RES     
    9669 H6        -127.7157   -45.0418    75.5517 H6            1 RES     
    9670 H6        -127.0272   -47.4595    75.5210 H6            1 RES     
    9671 H6        -125.3584   -47.0447    76.0669 H6            1 RES     
    9672 H6        -124.8386   -45.7860    74.0739 H6            1 RES     
    9673 H6        -126.4644   -46.0855    73.3540 H6            1 RES     
    9674 H6        -125.9179   -48.4787    73.0728 H6            1 RES     
    9675 H6        -124.3518   -48.2699    73.9552 H6            1 RES     
    9676 H6        -123.5326   -46.6569    72.2599 H6            1 RES     
    9677 H6        -125.0838   -46.7649    71.3481 H6            1 RES     
    9678 H6        -124.6400   -49.1595    70.8435 H6            1 RES     
    9679 H6        -123.0905   -49.0814    71.7854 H6            1 RES     
    9680 H6        -123.2943   -48.0986    70.2898 H6            1 RES     
    9681 C0        -130.8128   -34.3742    87.9231 C0            1 RES     
    9682 C1        -132.1483   -34.1876    87.6987 C1            1 RES     
    9683 C1        -132.9250   -35.1259    88.2758 C1            1 RES     
    9684 C1        -132.2150   -36.0353    88.8669 C1            1 RES     
    9685 C1        -130.7788   -35.7514    88.7014 C1            1 RES     
    9686 C1        -130.4937   -37.0080    87.8927 C1            1 RES     
    9687 C1        -131.4214   -38.0076    87.9478 C1            1 RES     
    9688 S2        -132.7568   -37.6846    89.1490 S2            1 RES     
    9689 C1        -131.3838   -39.2400    87.0534 C1            1 RES     
    9690 C1        -130.2031   -39.6015    86.3401 C1            1 RES     
    9691 N3        -130.1676   -40.6898    85.5176 N3            1 RES     
    9692 C1        -131.2418   -41.4825    85.3050 C1            1 RES     
    9693 C1        -132.4354   -41.1809    85.9488 C1            1 RES     
    9694 C1        -132.5095   -40.0617    86.8329 C1            1 RES     
    9695 N3        -133.7355   -39.8623    87.3938 N3            1 RES     
    9696 S2        -134.6372   -41.0970    86.7560 S2            1 RES     
    9697 N3        -133.5721   -41.8997    85.7818 N3            1 RES     
    9698 S2        -134.5496   -34.9784    87.9016 S2            1 RES     
    9699 C1        -134.2768   -33.6106    86.9414 C1            1 RES     
    9700 C1        -132.9073   -33.3234    86.8917 C1            1 RES     
    9701 C0        -130.3006   -33.0965    88.7475 C0            1 RES     
    9702 C0        -130.7978   -31.7868    89.5426 C0            1 RES     
    9703 C0        -131.8007   -30.8583    88.7877 C0            1 RES     
    9704 C0        -133.1104   -30.6904    89.5809 C0            1 RES     
    9705 C0        -134.2189   -29.9431    88.8178 C0            1 RES     
    9706 C0        -135.4311   -29.7378    89.7464 C0            1 RES     
    9707 C0        -136.6587   -29.1804    89.0152 C0            1 RES     
    9708 C0        -137.8154   -28.9649    89.9939 C0            1 RES     
    9709 C0        -129.4602   -30.9902    89.8816 C0            1 RES     
    9710 C0        -129.3394   -29.6289    90.6359 C0            1 RES     
    9711 C0        -129.5456   -28.3238    89.8073 C0            1 RES     
    9712 C0        -128.7281   -27.1348    90.3995 C0            1 RES     
    9713 C0        -128.8126   -25.8445    89.5578 C0            1 RES     
    9714 C0        -127.6572   -24.8423    89.8148 C0            1 RES     
    9715 C0        -127.5164   -24.3475    91.2617 C0            1 RES     
    9716 C0        -126.3715   -23.3318    91.3770 C0            1 RES     
    9717 C0        -129.9246   -34.2808    86.5906 C0            1 RES     
    9718 C0        -128.2900   -34.2243    86.4852 C0            1 RES     
    9719 C0        -127.6624   -32.9703    87.2164 C0            1 RES     
    9720 C0        -126.2085   -32.5987    86.9431 C0            1 RES     
    9721 C0        -125.7349   -31.2742    87.5685 C0            1 RES     
    9722 C0        -125.5528   -31.3577    89.0983 C0            1 RES     
    9723 C0        -124.6161   -30.2595    89.6335 C0            1 RES     
    9724 C0        -125.1773   -28.8544    89.5010 C0            1 RES     
    9725 C0        -127.4316   -35.5570    86.6733 C0            1 RES     
    9726 C0        -126.1480   -35.5565    85.7588 C0            1 RES     
    9727 C0        -125.2001   -36.7756    85.5884 C0            1 RES     
    9728 C0        -124.0198   -36.9686    86.5961 C0            1 RES     
    9729 C0        -122.8153   -37.6026    85.8330 C0            1 RES     
    9730 C0        -121.5205   -37.8603    86.6337 C0            1 RES     
    9731 C0        -120.3827   -38.2392    85.6525 C0            1 RES     
    9732 C0        -119.0630   -38.5753    86.3454 C0            1 RES     
    9733 H4        -129.6591   -37.0659    87.2443 H4            1 RES     
    9734 H5        -129.2937   -39.0333    86.4495 H5            1 RES     
    9735 H4        -132.5080   -32.5376    86.2704 H4            1 RES     
    9736 H6        -129.5777   -33.5550    89.4557 H6            1 RES     
    9737 H6        -129.8472   -32.4821    87.9960 H6            1 RES     
    9738 H6        -131.2526   -32.1076    90.5056 H6            1 RES     
    9739 H6        -131.3759   -29.8565    88.5972 H6            1 RES     
    9740 H6        -131.9826   -31.2248    87.7841 H6            1 RES     
    9741 H6        -133.5096   -31.6963    89.8381 H6            1 RES     
    9742 H6        -132.8712   -30.1473    90.5218 H6            1 RES     
    9743 H6        -133.8616   -28.9523    88.4601 H6            1 RES     
    9744 H6        -134.5135   -30.5556    87.9372 H6            1 RES     
    9745 H6        -135.1363   -29.0423    90.5639 H6            1 RES     
    9746 H6        -135.7195   -30.7126    90.1968 H6            1 RES     
    9747 H6        -136.4161   -28.2131    88.5254 H6            1 RES     
    9748 H6        -136.9804   -29.9065    88.2366 H6            1 RES     
    9749 H6        -138.0756   -29.9161    90.5069 H6            1 RES     
    9750 H6        -137.5363   -28.2087    90.7591 H6            1 RES     
    9751 H6        -138.7123   -28.6022    89.4492 H6            1 RES     
    9752 H6        -128.8704   -31.7016    90.5005 H6            1 RES     
    9753 H6        -128.8821   -30.8302    88.9443 H6            1 RES     
    9754 H6        -129.8894   -29.6122    91.5983 H6            1 RES     
    9755 H6        -128.2568   -29.6114    90.8948 H6            1 RES     
    9756 H6        -129.1362   -28.4860    88.7846 H6            1 RES     
    9757 H6        -130.6220   -28.0707    89.7239 H6            1 RES     
    9758 H6        -129.0186   -26.9211    91.4498 H6            1 RES     
    9759 H6        -127.6695   -27.4352    90.3990 H6            1 RES     
    9760 H6        -128.7263   -26.1099    88.4813 H6            1 RES     
    9761 H6        -129.8016   -25.3638    89.7140 H6            1 RES     
    9762 H6        -127.8155   -23.9632    89.1515 H6            1 RES     
    9763 H6        -126.6976   -25.3205    89.5154 H6            1 RES     
    9764 H6        -127.2916   -25.2050    91.9305 H6            1 RES     
    9765 H6        -128.4590   -23.8636    91.5918 H6            1 RES     
    9766 H6        -126.5747   -22.4413    90.7434 H6            1 RES     
    9767 H6        -125.4078   -23.7843    91.0569 H6            1 RES     
    9768 H6        -126.2658   -22.9944    92.4300 H6            1 RES     
    9769 H6        -130.2614   -35.0998    85.9180 H6            1 RES     
    9770 H6        -130.2447   -33.3503    86.0682 H6            1 RES     
    9771 H6        -128.1877   -34.0134    85.3986 H6            1 RES     
    9772 H6        -127.7430   -33.0962    88.3127 H6            1 RES     
    9773 H6        -128.2180   -32.0793    86.8532 H6            1 RES     
    9774 H6        -125.5395   -33.3657    87.3715 H6            1 RES     
    9775 H6        -126.0923   -32.5085    85.8414 H6            1 RES     
    9776 H6        -124.7302   -31.0973    87.1295 H6            1 RES     
    9777 H6        -126.3890   -30.4226    87.2768 H6            1 RES     
    9778 H6        -125.0426   -32.3141    89.3400 H6            1 RES     
    9779 H6        -126.5322   -31.3534    89.6215 H6            1 RES     
    9780 H6        -123.6444   -30.3160    89.0963 H6            1 RES     
    9781 H6        -124.4215   -30.4498    90.7112 H6            1 RES     
    9782 H6        -124.4404   -28.1214    89.8943 H6            1 RES     
    9783 H6        -126.0906   -28.7984    90.1104 H6            1 RES     
    9784 H6        -125.4017   -28.5970    88.4457 H6            1 RES     
    9785 H6        -127.2256   -35.7628    87.7466 H6            1 RES     
    9786 H6        -127.9992   -36.3995    86.2459 H6            1 RES     
    9787 H6        -126.5608   -35.3899    84.7405 H6            1 RES     
    9788 H6        -125.4626   -34.7314    85.9209 H6            1 RES     
    9789 H6        -124.6962   -36.5024    84.6340 H6            1 RES     
    9790 H6        -125.7344   -37.7259    85.3815 H6            1 RES     
    9791 H6        -124.3430   -37.5752    87.4699 H6            1 RES     
    9792 H6        -123.6644   -35.9817    86.9647 H6            1 RES     
    9793 H6        -122.5437   -36.8840    85.0266 H6            1 RES     
    9794 H6        -123.1281   -38.5573    85.3580 H6            1 RES     
    9795 H6        -121.6914   -38.6800    87.3645 H6            1 RES     
    9796 H6        -121.2148   -36.9436    87.1833 H6            1 RES     
    9797 H6        -120.1981   -37.3828    84.9652 H6            1 RES     
    9798 H6        -120.6833   -39.1172    85.0407 H6            1 RES     
    9799 H6        -119.1809   -39.4701    86.9911 H6            1 RES     
    9800 H6        -118.7042   -37.7192    86.9538 H6            1 RES     
    9801 H6        -118.2922   -38.8018    85.5745 H6            1 RES     
    9802 C0        -139.4155   -29.7187    80.3661 C0            1 RES     
    9803 C1        -140.2800   -30.7776    80.3655 C1            1 RES     
    9804 C1        -140.8305   -31.0208    81.5715 C1            1 RES     
    9805 C1        -140.3614   -30.2234    82.4796 C1            1 RES     
    9806 C1        -139.3610   -29.3135    81.8947 C1            1 RES     
    9807 C1        -138.2027   -29.8499    82.7223 C1            1 RES     
    9808 C1        -138.5161   -30.5768    83.8342 C1            1 RES     
    9809 S2        -140.3047   -30.6034    84.1959 S2            1 RES     
    9810 C1        -137.4872   -31.3422    84.6561 C1            1 RES     
    9811 C1        -136.0916   -31.0798    84.5256 C1            1 RES     
    9812 N3        -135.1613   -31.7774    85.2399 N3            1 RES     
    9813 C1        -135.4893   -32.7701    86.0968 C1            1 RES     
    9814 C1        -136.8292   -33.0984    86.2610 C1            1 RES     
    9815 C1        -137.8356   -32.3798    85.5466 C1            1 RES     
    9816 N3        -139.1097   -32.8023    85.7827 N3            1 RES     
    9817 S2        -138.8935   -34.0341    86.8691 S2            1 RES     
    9818 N3        -137.2561   -34.0927    87.0771 N3            1 RES     
    9819 S2        -141.7907   -32.3911    81.6095 S2            1 RES     
    9820 C1        -141.5159   -32.7149    79.9703 C1            1 RES     
    9821 C1        -140.6343   -31.7683    79.4344 C1            1 RES     
    9822 C0        -140.0341   -28.6177    79.3763 C0            1 RES     
    9823 C0        -141.3518   -28.2308    78.5346 C0            1 RES     
    9824 C0        -141.9322   -29.3447    77.6073 C0            1 RES     
    9825 C0        -143.3956   -29.6636    77.9674 C0            1 RES     
    9826 C0        -143.9780   -30.8791    77.2238 C0            1 RES     
    9827 C0        -145.4699   -31.0295    77.5778 C0            1 RES     
    9828 C0        -146.0851   -32.3284    77.0422 C0            1 RES     
    9829 C0        -147.5728   -32.4034    77.3936 C0            1 RES     
    9830 C0        -140.9187   -26.9655    77.6684 C0            1 RES     
    9831 C0        -141.7986   -26.1743    76.6503 C0            1 RES     
    9832 C0        -141.9159   -26.7432    75.2030 C0            1 RES     
    9833 C0        -142.1462   -25.6078    74.1587 C0            1 RES     
    9834 C0        -142.1651   -26.1039    72.6979 C0            1 RES     
    9835 C0        -141.8847   -24.9972    71.6481 C0            1 RES     
    9836 C0        -142.8557   -23.8076    71.6614 C0            1 RES     
    9837 C0        -142.5009   -22.8073    70.5528 C0            1 RES     
    9838 C0        -138.0125   -30.0423    79.6590 C0            1 RES     
    9839 C0        -136.8265   -28.9811    79.2671 C0            1 RES     
    9840 C0        -137.2985   -27.8697    78.2459 C0            1 RES     
    9841 C0        -136.2521   -27.0134    77.5400 C0            1 RES     
    9842 C0        -136.7928   -26.0749    76.4462 C0            1 RES     
    9843 C0        -137.5725   -24.8702    77.0129 C0            1 RES     
    9844 C0        -137.6510   -23.7044    76.0106 C0            1 RES     
    9845 C0        -138.4801   -24.0103    74.7753 C0            1 RES     
    9846 C0        -135.8505   -28.4212    80.3996 C0            1 RES     
    9847 C0        -134.3932   -28.1857    79.8477 C0            1 RES     
    9848 C0        -133.1769   -27.8050    80.7361 C0            1 RES     
    9849 C0        -132.8986   -26.2962    81.0395 C0            1 RES     
    9850 C0        -131.3553   -26.0870    81.1385 C0            1 RES     
    9851 C0        -130.8463   -24.6547    81.4094 C0            1 RES     
    9852 C0        -129.3101   -24.6150    81.2112 C0            1 RES     
    9853 C0        -128.6887   -23.2520    81.5127 C0            1 RES     
    9854 H4        -137.2007   -29.7423    82.3986 H4            1 RES     
    9855 H5        -135.7327   -30.3025    83.8708 H5            1 RES     
    9856 H4        -140.2642   -31.8364    78.4237 H4            1 RES     
    9857 H6        -139.7939   -27.6714    79.9068 H6            1 RES     
    9858 H6        -139.4832   -28.7626    78.4690 H6            1 RES     
    9859 H6        -142.1416   -27.8993    79.2441 H6            1 RES     
    9860 H6        -141.8881   -29.0614    76.5405 H6            1 RES     
    9861 H6        -141.3090   -30.2310    77.6351 H6            1 RES     
    9862 H6        -143.4612   -29.8822    79.0561 H6            1 RES     
    9863 H6        -144.0054   -28.7602    77.7448 H6            1 RES     
    9864 H6        -143.8744   -30.7629    76.1225 H6            1 RES     
    9865 H6        -143.4182   -31.7865    77.5413 H6            1 RES     
    9866 H6        -146.0215   -30.1565    77.1623 H6            1 RES     
    9867 H6        -145.5881   -31.0301    78.6835 H6            1 RES     
    9868 H6        -145.9720   -32.3883    75.9386 H6            1 RES     
    9869 H6        -145.5649   -33.1960    77.5043 H6            1 RES     
    9870 H6        -147.7183   -32.3371    78.4936 H6            1 RES     
    9871 H6        -148.1256   -31.5710    76.9072 H6            1 RES     
    9872 H6        -147.9994   -33.3654    77.0398 H6            1 RES     
    9873 H6        -140.6236   -26.2066    78.4259 H6            1 RES     
    9874 H6        -139.9991   -27.2136    77.0928 H6            1 RES     
    9875 H6        -142.7789   -25.8668    77.0666 H6            1 RES     
    9876 H6        -141.2072   -25.2399    76.5217 H6            1 RES     
    9877 H6        -140.9431   -27.2091    74.9262 H6            1 RES     
    9878 H6        -142.7104   -27.5145    75.1413 H6            1 RES     
    9879 H6        -143.0717   -25.0338    74.3753 H6            1 RES     
    9880 H6        -141.2954   -24.9146    74.2385 H6            1 RES     
    9881 H6        -141.3471   -26.8441    72.5578 H6            1 RES     
    9882 H6        -143.1292   -26.6156    72.4923 H6            1 RES     
    9883 H6        -141.9129   -25.4687    70.6408 H6            1 RES     
    9884 H6        -140.8543   -24.6074    71.8077 H6            1 RES     
    9885 H6        -142.7924   -23.2834    72.6384 H6            1 RES     
    9886 H6        -143.8952   -24.1630    71.5039 H6            1 RES     
    9887 H6        -142.5829   -23.2872    69.5535 H6            1 RES     
    9888 H6        -141.4644   -22.4262    70.6810 H6            1 RES     
    9889 H6        -143.1969   -21.9421    70.5828 H6            1 RES     
    9890 H6        -137.5335   -30.8565    80.2457 H6            1 RES     
    9891 H6        -138.2591   -30.5188    78.6826 H6            1 RES     
    9892 H6        -136.1667   -29.6578    78.6820 H6            1 RES     
    9893 H6        -137.9804   -27.1604    78.7521 H6            1 RES     
    9894 H6        -137.7927   -28.4004    77.4041 H6            1 RES     
    9895 H6        -135.7644   -26.3424    78.2689 H6            1 RES     
    9896 H6        -135.5288   -27.7064    77.0582 H6            1 RES     
    9897 H6        -135.8869   -25.6713    75.9463 H6            1 RES     
    9898 H6        -137.3852   -26.6278    75.6834 H6            1 RES     
    9899 H6        -137.0115   -24.4655    77.8817 H6            1 RES     
    9900 H6        -138.5792   -25.1737    77.3700 H6            1 RES     
    9901 H6        -136.6219   -23.4228    75.6983 H6            1 RES     
    9902 H6        -138.1054   -22.8263    76.5186 H6            1 RES     
    9903 H6        -138.4765   -23.1294    74.0980 H6            1 RES     
    9904 H6        -139.5125   -24.2002    75.1020 H6            1 RES     
    9905 H6        -138.0849   -24.8846    74.2187 H6            1 RES     
    9906 H6        -136.2885   -27.5403    80.9183 H6            1 RES     
    9907 H6        -135.6745   -29.2232    81.1347 H6            1 RES     
    9908 H6        -134.1190   -29.1751    79.4223 H6            1 RES     
    9909 H6        -134.3178   -27.4933    79.0159 H6            1 RES     
    9910 H6        -132.3404   -28.1023    80.0642 H6            1 RES     
    9911 H6        -133.0730   -28.4405    81.6398 H6            1 RES     
    9912 H6        -133.4363   -25.9732    81.9573 H6            1 RES     
    9913 H6        -133.2401   -25.6646    80.1907 H6            1 RES     
    9914 H6        -130.9362   -26.3836    80.1502 H6            1 RES     
    9915 H6        -130.9307   -26.7610    81.9133 H6            1 RES     
    9916 H6        -131.1114   -24.3550    82.4462 H6            1 RES     
    9917 H6        -131.3077   -23.9372    80.6964 H6            1 RES     
    9918 H6        -129.0756   -24.8695    80.1528 H6            1 RES     
    9919 H6        -128.8214   -25.3682    81.8662 H6            1 RES     
    9920 H6        -128.8369   -22.9857    82.5798 H6            1 RES     
    9921 H6        -129.1266   -22.4636    80.8658 H6            1 RES     
    9922 H6        -127.5940   -23.2969    81.3143 H6            1 RES     
    9923 C0        -142.5114   -40.4593    75.0896 C0            1 RES     
    9924 C1        -142.7247   -41.1896    76.2253 C1            1 RES     
    9925 C1        -143.7589   -40.7415    76.9643 C1            1 RES     
    9926 C1        -144.2818   -39.6709    76.4536 C1            1 RES     
    9927 C1        -143.5597   -39.2823    75.2295 C1            1 RES     
    9928 C1        -143.0598   -37.9601    75.7917 C1            1 RES     
    9929 C1        -143.6923   -37.4759    76.9000 C1            1 RES     
    9930 S2        -145.1541   -38.4572    77.3805 S2            1 RES     
    9931 C1        -143.1950   -36.2758    77.6951 C1            1 RES     
    9932 C1        -142.2365   -35.3718    77.1495 C1            1 RES     
    9933 N3        -141.7670   -34.3079    77.8637 N3            1 RES     
    9934 C1        -142.1554   -34.0487    79.1323 C1            1 RES     
    9935 C1        -143.0713   -34.8984    79.7398 C1            1 RES     
    9936 C1        -143.6016   -36.0124    79.0203 C1            1 RES     
    9937 N3        -144.4809   -36.7773    79.7270 N3            1 RES     
    9938 S2        -144.5415   -36.0087    81.1933 S2            1 RES     
    9939 N3        -143.5032   -34.7368    81.0142 N3            1 RES     
    9940 S2        -143.9479   -41.5496    78.4178 S2            1 RES     
    9941 C1        -142.6317   -42.5676    78.1040 C1            1 RES     
    9942 C1        -142.0362   -42.2216    76.8848 C1            1 RES     
    9943 C0        -142.7430   -41.4535    73.8516 C0            1 RES     
    9944 C0        -143.2905   -42.9147    73.4519 C0            1 RES     
    9945 C0        -142.7169   -44.1155    74.2684 C0            1 RES     
    9946 C0        -143.8427   -44.9099    74.9572 C0            1 RES     
    9947 C0        -143.3457   -45.9941    75.9304 C0            1 RES     
    9948 C0        -144.5497   -46.7914    76.4672 C0            1 RES     
    9949 C0        -144.1723   -47.7607    77.5945 C0            1 RES     
    9950 C0        -145.3996   -48.5475    78.0602 C0            1 RES     
    9951 C0        -142.9234   -43.0737    71.9096 C0            1 RES     
    9952 C0        -143.2060   -44.3074    70.9958 C0            1 RES     
    9953 C0        -142.1910   -45.4904    71.0463 C0            1 RES     
    9954 C0        -142.1305   -46.2508    69.6858 C0            1 RES     
    9955 C0        -141.0653   -47.3663    69.6462 C0            1 RES     
    9956 C0        -140.6341   -47.7815    68.2155 C0            1 RES     
    9957 C0        -141.7594   -48.2937    67.3047 C0            1 RES     
    9958 C0        -141.2007   -48.7128    65.9380 C0            1 RES     
    9959 C0        -140.9783   -40.0343    74.8849 C0            1 RES     
    9960 C0        -140.3006   -39.3610    73.5531 C0            1 RES     
    9961 C0        -140.4143   -40.2750    72.2676 C0            1 RES     
    9962 C0        -139.5661   -39.9476    71.0429 C0            1 RES     
    9963 C0        -139.6196   -40.9824    69.9045 C0            1 RES     
    9964 C0        -140.9560   -40.9665    69.1338 C0            1 RES     
    9965 C0        -140.8263   -41.5883    67.7315 C0            1 RES     
    9966 C0        -140.5357   -43.0791    67.7445 C0            1 RES     
    9967 C0        -140.5193   -37.8102    73.2437 C0            1 RES     
    9968 C0        -139.2494   -37.1670    72.5671 C0            1 RES     
    9969 C0        -139.0844   -35.6464    72.2947 C0            1 RES     
    9970 C0        -139.6323   -35.0490    70.9572 C0            1 RES     
    9971 C0        -138.6917   -33.8863    70.5117 C0            1 RES     
    9972 C0        -139.0302   -33.1623    69.1906 C0            1 RES     
    9973 C0        -137.8499   -32.2372    68.8008 C0            1 RES     
    9974 C0        -138.1031   -31.4225    67.5332 C0            1 RES     
    9975 H4        -142.2009   -37.4849    75.3956 H4            1 RES     
    9976 H5        -141.8709   -35.4927    76.1428 H5            1 RES     
    9977 H4        -141.1330   -42.6942    76.5329 H4            1 RES     
    9978 H6        -143.2492   -40.7913    73.1170 H6            1 RES     
    9979 H6        -141.7484   -41.7372    73.5722 H6            1 RES     
    9980 H6        -144.3995   -42.9134    73.5363 H6            1 RES     
    9981 H6        -142.1366   -44.8092    73.6340 H6            1 RES     
    9982 H6        -141.9716   -43.7763    74.9784 H6            1 RES     
    9983 H6        -144.4752   -44.2075    75.5434 H6            1 RES     
    9984 H6        -144.4654   -45.3765    74.1622 H6            1 RES     
    9985 H6        -142.6410   -46.6923    75.4271 H6            1 RES     
    9986 H6        -142.8144   -45.4950    76.7708 H6            1 RES     
    9987 H6        -145.0023   -47.3590    75.6234 H6            1 RES     
    9988 H6        -145.3098   -46.0859    76.8682 H6            1 RES     
    9989 H6        -143.3947   -48.4759    77.2509 H6            1 RES     
    9990 H6        -143.7721   -47.1810    78.4551 H6            1 RES     
    9991 H6        -146.2000   -47.8564    78.4027 H6            1 RES     
    9992 H6        -145.7947   -49.1714    77.2297 H6            1 RES     
    9993 H6        -145.1261   -49.2147    78.9045 H6            1 RES     
    9994 H6        -143.4614   -42.2353    71.4151 H6            1 RES     
    9995 H6        -141.8366   -42.8795    71.7702 H6            1 RES     
    9996 H6        -144.2596   -44.6496    71.0372 H6            1 RES     
    9997 H6        -143.0585   -43.8734    69.9814 H6            1 RES     
    9998 H6        -141.1698   -45.0739    71.1999 H6            1 RES     
    9999 H6        -142.4240   -46.1798    71.8831 H6            1 RES     
   10000 H6        -143.1217   -46.6640    69.4032 H6            1 RES     
   10001 H6        -141.8405   -45.5194    68.9166 H6            1 RES     
   10002 H6        -140.1349   -46.9938    70.1281 H6            1 RES     
   10003 H6        -141.4243   -48.2429    70.2262 H6            1 RES     
   10004 H6        -139.8624   -48.5774    68.3102 H6            1 RES     
   10005 H6        -140.1556   -46.9072    67.7197 H6            1 RES     
   10006 H6        -142.5073   -47.4886    67.1446 H6            1 RES     
   10007 H6        -142.2581   -49.1685    67.7712 H6            1 RES     
   10008 H6        -140.4685   -49.5411    66.0532 H6            1 RES     
   10009 H6        -140.6955   -47.8577    65.4383 H6            1 RES     
   10010 H6        -142.0245   -49.0638    65.2807 H6            1 RES     
   10011 H6        -140.7029   -39.3876    75.7468 H6            1 RES     
   10012 H6        -140.3764   -40.9596    75.0354 H6            1 RES     
   10013 H6        -139.2314   -39.4067    73.8535 H6            1 RES     
   10014 H6        -141.4626   -40.2967    71.9142 H6            1 RES     
   10015 H6        -140.0479   -41.2824    72.5601 H6            1 RES     
   10016 H6        -139.9195   -39.0075    70.5837 H6            1 RES     
   10017 H6        -138.5099   -39.8778    71.3819 H6            1 RES     
   10018 H6        -138.8290   -40.6620    69.1934 H6            1 RES     
   10019 H6        -139.3621   -42.0040    70.2627 H6            1 RES     
   10020 H6        -141.2458   -39.9095    68.9542 H6            1 RES     
   10021 H6        -141.7664   -41.4456    69.7225 H6            1 RES     
   10022 H6        -140.0196   -41.0645    67.1740 H6            1 RES     
   10023 H6        -141.7790   -41.4304    67.1811 H6            1 RES     
   10024 H6        -140.4428   -43.4485    66.7005 H6            1 RES     
   10025 H6        -141.3873   -43.5834    68.2229 H6            1 RES     
   10026 H6        -139.5960   -43.3120    68.2858 H6            1 RES     
   10027 H6        -141.4680   -37.6330    72.6913 H6            1 RES     
   10028 H6        -140.5511   -37.2656    74.2013 H6            1 RES     
   10029 H6        -138.4322   -37.4045    73.2819 H6            1 RES     
   10030 H6        -138.9422   -37.6205    71.6307 H6            1 RES     
   10031 H6        -137.9784   -35.5843    72.1831 H6            1 RES     
   10032 H6        -139.3314   -35.0108    73.1700 H6            1 RES     
   10033 H6        -140.6897   -34.7265    71.0738 H6            1 RES     
   10034 H6        -139.5835   -35.8103    70.1483 H6            1 RES     
   10035 H6        -137.6837   -34.3377    70.3687 H6            1 RES     
   10036 H6        -138.6214   -33.1257    71.3188 H6            1 RES     
   10037 H6        -139.9615   -32.5695    69.3188 H6            1 RES     
   10038 H6        -139.1801   -33.8988    68.3715 H6            1 RES     
   10039 H6        -136.9434   -32.8608    68.6294 H6            1 RES     
   10040 H6        -137.6321   -31.5276    69.6281 H6            1 RES     
   10041 H6        -138.9589   -30.7316    67.6808 H6            1 RES     
   10042 H6        -138.3032   -32.0868    66.6670 H6            1 RES     
   10043 H6        -137.1999   -30.8132    67.3033 H6            1 RES     
   10044 C0        -137.4799   -47.7014    83.7512 C0            1 RES     
   10045 C1        -138.0558   -47.1315    84.8522 C1            1 RES     
   10046 C1        -139.3968   -47.2635    84.8846 C1            1 RES     
   10047 C1        -139.8439   -47.8543    83.8208 C1            1 RES     
   10048 C1        -138.7322   -48.1785    82.9098 C1            1 RES     
   10049 C1        -139.2151   -47.2671    81.7915 C1            1 RES     
   10050 C1        -140.5150   -46.8541    81.8424 C1            1 RES     
   10051 S2        -141.4691   -47.6446    83.1823 S2            1 RES     
   10052 C1        -141.0974   -45.7939    80.9168 C1            1 RES     
   10053 C1        -140.4265   -45.4070    79.7194 C1            1 RES     
   10054 N3        -140.9285   -44.4408    78.8967 N3            1 RES     
   10055 C1        -142.0731   -43.7732    79.1644 C1            1 RES     
   10056 C1        -142.7722   -44.0798    80.3251 C1            1 RES     
   10057 C1        -142.2909   -45.0981    81.2033 C1            1 RES     
   10058 N3        -143.0565   -45.2981    82.3131 N3            1 RES     
   10059 S2        -144.2811   -44.1995    82.1183 S2            1 RES     
   10060 N3        -143.9148   -43.4504    80.6927 N3            1 RES     
   10061 S2        -140.1218   -46.4603    86.1615 S2            1 RES     
   10062 C1        -138.6343   -45.9021    86.7472 C1            1 RES     
   10063 C1        -137.5985   -46.3156    85.9006 C1            1 RES     
   10064 C0        -136.5163   -48.8675    84.2861 C0            1 RES     
   10065 C0        -136.1151   -49.7135    85.5969 C0            1 RES     
   10066 C0        -135.7720   -48.8863    86.8758 C0            1 RES     
   10067 C0        -136.6879   -49.2730    88.0524 C0            1 RES     
   10068 C0        -136.5374   -48.3726    89.2918 C0            1 RES     
   10069 C0        -137.4138   -48.9219    90.4336 C0            1 RES     
   10070 C0        -137.4837   -47.9800    91.6420 C0            1 RES     
   10071 C0        -138.3366   -48.5947    92.7542 C0            1 RES     
   10072 C0        -134.8546   -50.5781    85.1473 C0            1 RES     
   10073 C0        -134.0370   -51.5786    86.0232 C0            1 RES     
   10074 C0        -132.9225   -50.9899    86.9416 C0            1 RES     
   10075 C0        -131.7658   -52.0121    87.1650 C0            1 RES     
   10076 C0        -130.5859   -51.4443    87.9810 C0            1 RES     
   10077 C0        -129.2545   -52.2173    87.7936 C0            1 RES     
   10078 C0        -129.2937   -53.7074    88.1626 C0            1 RES     
   10079 C0        -127.9110   -54.3473    87.9770 C0            1 RES     
   10080 C0        -136.4399   -46.7348    83.0049 C0            1 RES     
   10081 C0        -135.3982   -47.1307    81.8029 C0            1 RES     
   10082 C0        -134.3527   -48.2392    82.2259 C0            1 RES     
   10083 C0        -133.1300   -48.4844    81.3475 C0            1 RES     
   10084 C0        -132.0880   -49.4617    81.9209 C0            1 RES     
   10085 C0        -132.5553   -50.9317    81.8907 C0            1 RES     
   10086 C0        -131.3759   -51.9187    81.9594 C0            1 RES     
   10087 C0        -130.6310   -51.8955    83.2829 C0            1 RES     
   10088 C0        -135.9333   -47.3077    80.3093 C0            1 RES     
   10089 C0        -134.8683   -46.8317    79.2495 C0            1 RES     
   10090 C0        -135.1467   -46.7212    77.7250 C0            1 RES     
   10091 C0        -134.9300   -47.9772    76.8187 C0            1 RES     
   10092 C0        -134.4284   -47.4990    75.4206 C0            1 RES     
   10093 C0        -134.1222   -48.5829    74.3644 C0            1 RES     
   10094 C0        -133.3995   -47.9292    73.1597 C0            1 RES     
   10095 C0        -133.0999   -48.9047    72.0224 C0            1 RES     
   10096 H4        -138.5473   -46.8962    81.0587 H4            1 RES     
   10097 H5        -139.5093   -45.8865    79.4183 H5            1 RES     
   10098 H4        -136.5773   -46.0015    86.0476 H4            1 RES     
   10099 H6        -136.6640   -49.6573    83.5188 H6            1 RES     
   10100 H6        -135.5454   -48.4150    84.2671 H6            1 RES     
   10101 H6        -136.9422   -50.4194    85.8306 H6            1 RES     
   10102 H6        -134.7218   -49.0241    87.1898 H6            1 RES     
   10103 H6        -135.8115   -47.8234    86.6680 H6            1 RES     
   10104 H6        -137.7483   -49.2045    87.7235 H6            1 RES     
   10105 H6        -136.4638   -50.3278    88.3257 H6            1 RES     
   10106 H6        -135.4790   -48.3317    89.6317 H6            1 RES     
   10107 H6        -136.8654   -47.3446    89.0211 H6            1 RES     
   10108 H6        -137.0035   -49.9066    90.7516 H6            1 RES     
   10109 H6        -138.4509   -49.0730    90.0622 H6            1 RES     
   10110 H6        -136.4659   -47.7771    92.0388 H6            1 RES     
   10111 H6        -137.9453   -47.0180    91.3284 H6            1 RES     
   10112 H6        -139.3607   -48.8171    92.3835 H6            1 RES     
   10113 H6        -137.8736   -49.5372    93.1179 H6            1 RES     
   10114 H6        -138.4169   -47.8882    93.6069 H6            1 RES     
   10115 H6        -135.2365   -51.1969    84.3057 H6            1 RES     
   10116 H6        -134.0813   -49.9023    84.7187 H6            1 RES     
   10117 H6        -134.6724   -52.3199    86.5483 H6            1 RES     
   10118 H6        -133.4722   -52.1448    85.2488 H6            1 RES     
   10119 H6        -132.4566   -50.1229    86.4208 H6            1 RES     
   10120 H6        -133.3440   -50.6413    87.9062 H6            1 RES     
   10121 H6        -132.1329   -52.9499    87.6329 H6            1 RES     
   10122 H6        -131.3614   -52.2679    86.1742 H6            1 RES     
   10123 H6        -130.3685   -50.4118    87.6300 H6            1 RES     
   10124 H6        -130.8691   -51.3891    89.0536 H6            1 RES     
   10125 H6        -128.4798   -51.7166    88.4157 H6            1 RES     
   10126 H6        -128.9386   -52.1303    86.7297 H6            1 RES     
   10127 H6        -130.0151   -54.2372    87.5052 H6            1 RES     
   10128 H6        -129.6056   -53.8294    89.2206 H6            1 RES     
   10129 H6        -127.1645   -53.8632    88.6434 H6            1 RES     
   10130 H6        -127.5670   -54.2470    86.9246 H6            1 RES     
   10131 H6        -127.9543   -55.4284    88.2283 H6            1 RES     
   10132 H6        -137.0142   -45.8498    82.6531 H6            1 RES     
   10133 H6        -135.7704   -46.3278    83.7968 H6            1 RES     
   10134 H6        -134.8184   -46.1839    81.7493 H6            1 RES     
   10135 H6        -134.8606   -49.2177    82.3197 H6            1 RES     
   10136 H6        -133.9045   -47.9041    83.1858 H6            1 RES     
   10137 H6        -133.4421   -48.9377    80.3902 H6            1 RES     
   10138 H6        -132.6254   -47.5046    81.2031 H6            1 RES     
   10139 H6        -131.2178   -49.3818    81.2355 H6            1 RES     
   10140 H6        -131.7509   -49.1568    82.9367 H6            1 RES     
   10141 H6        -133.0375   -51.1273    80.9096 H6            1 RES     
   10142 H6        -133.3058   -51.1324    82.6841 H6            1 RES     
   10143 H6        -130.6636   -51.6927    81.1363 H6            1 RES     
   10144 H6        -131.7624   -52.9490    81.8026 H6            1 RES     
   10145 H6        -129.7900   -52.6210    83.2486 H6            1 RES     
   10146 H6        -131.3335   -52.2062    84.0694 H6            1 RES     
   10147 H6        -130.2203   -50.8901    83.5081 H6            1 RES     
   10148 H6        -136.3230   -48.3343    80.1333 H6            1 RES     
   10149 H6        -136.7433   -46.5796    80.1414 H6            1 RES     
   10150 H6        -134.6479   -45.7880    79.5610 H6            1 RES     
   10151 H6        -133.9125   -47.3432    79.2895 H6            1 RES     
   10152 H6        -134.3284   -46.0289    77.4242 H6            1 RES     
   10153 H6        -136.0903   -46.1888    77.4851 H6            1 RES     
   10154 H6        -135.8594   -48.5843    76.7580 H6            1 RES     
   10155 H6        -134.1194   -48.6150    77.2340 H6            1 RES     
   10156 H6        -133.4699   -46.9611    75.6002 H6            1 RES     
   10157 H6        -135.1545   -46.7804    74.9832 H6            1 RES     
   10158 H6        -135.0701   -49.0607    74.0353 H6            1 RES     
   10159 H6        -133.4532   -49.3621    74.7902 H6            1 RES     
   10160 H6        -132.4311   -47.5033    73.5070 H6            1 RES     
   10161 H6        -134.0161   -47.1008    72.7488 H6            1 RES     
   10162 H6        -134.0431   -49.3042    71.5956 H6            1 RES     
   10163 H6        -132.4638   -49.7430    72.3750 H6            1 RES     
   10164 H6        -132.5525   -48.3682    71.2148 H6            1 RES     
   10165 C0        -136.6028   -38.9653    92.4516 C0            1 RES     
   10166 C1        -137.8903   -38.5076    92.4106 C1            1 RES     
   10167 C1        -138.7985   -39.4274    92.7924 C1            1 RES     
   10168 C1        -138.2410   -40.5678    93.0554 C1            1 RES     
   10169 C1        -136.7863   -40.4893    92.8356 C1            1 RES     
   10170 C1        -136.7742   -41.5050    91.7031 C1            1 RES     
   10171 C1        -137.8661   -42.3149    91.5817 C1            1 RES     
   10172 S2        -139.0626   -42.1190    92.9456 S2            1 RES     
   10173 C1        -138.0966   -43.2435    90.3965 C1            1 RES     
   10174 C1        -137.0365   -43.5843    89.5057 C1            1 RES     
   10175 N3        -137.2393   -44.3958    88.4275 N3            1 RES     
   10176 C1        -138.4494   -44.9122    88.1168 C1            1 RES     
   10177 C1        -139.5364   -44.6070    88.9264 C1            1 RES     
   10178 C1        -139.3629   -43.7768    90.0755 C1            1 RES     
   10179 N3        -140.5043   -43.5404    90.7818 N3            1 RES     
   10180 S2        -141.6458   -44.3873    89.9307 S2            1 RES     
   10181 N3        -140.7922   -45.0556    88.6847 N3            1 RES     
   10182 S2        -140.3840   -38.9183    92.6243 S2            1 RES     
   10183 C1        -139.9094   -37.4037    92.0343 C1            1 RES     
   10184 C1        -138.5142   -37.3429    91.9330 C1            1 RES     
   10185 C0        -135.8274   -38.0648    93.5298 C0            1 RES     
   10186 C0        -136.0386   -36.9603    94.6830 C0            1 RES     
   10187 C0        -136.8877   -35.7088    94.2952 C0            1 RES     
   10188 C0        -138.1064   -35.5521    95.2243 C0            1 RES     
   10189 C0        -139.0929   -34.4527    94.7912 C0            1 RES     
   10190 C0        -140.2026   -34.3139    95.8508 C0            1 RES     
   10191 C0        -141.3396   -33.3836    95.4099 C0            1 RES     
   10192 C0        -142.3906   -33.2578    96.5152 C0            1 RES     
   10193 C0        -134.5633   -36.5181    95.0914 C0            1 RES     
   10194 C0        -134.1600   -35.4549    96.1608 C0            1 RES     
   10195 C0        -134.1612   -33.9572    95.7259 C0            1 RES     
   10196 C0        -133.1130   -33.1272    96.5290 C0            1 RES     
   10197 C0        -132.9980   -31.6599    96.0662 C0            1 RES     
   10198 C0        -131.6677   -30.9705    96.4666 C0            1 RES     
   10199 C0        -131.3718   -30.9215    97.9727 C0            1 RES     
   10200 C0        -130.0559   -30.1787    98.2416 C0            1 RES     
   10201 C0        -135.7750   -38.6571    91.1127 C0            1 RES     
   10202 C0        -134.1644   -38.8431    90.8724 C0            1 RES     
   10203 C0        -133.2843   -37.9585    91.8440 C0            1 RES     
   10204 C0        -131.8011   -37.7702    91.5420 C0            1 RES     
   10205 C0        -131.0641   -36.7645    92.4448 C0            1 RES     
   10206 C0        -130.8301   -37.2930    93.8752 C0            1 RES     
   10207 C0        -129.6840   -36.5531    94.5886 C0            1 RES     
   10208 C0        -129.9834   -35.0932    94.8820 C0            1 RES     
   10209 C0        -133.5575   -40.2985    90.6235 C0            1 RES     
   10210 C0        -132.3392   -40.2579    89.6245 C0            1 RES     
   10211 C0        -131.6400   -41.5220    89.0526 C0            1 RES     
   10212 C0        -130.4699   -42.1751    89.8591 C0            1 RES     
   10213 C0        -129.4387   -42.7642    88.8468 C0            1 RES     
   10214 C0        -128.1776   -43.4407    89.4267 C0            1 RES     
   10215 C0        -127.1753   -43.7174    88.2780 C0            1 RES     
   10216 C0        -125.9091   -44.4426    88.7315 C0            1 RES     
   10217 H4        -135.9952   -41.5191    90.9867 H4            1 RES     
   10218 H5        -136.0342   -43.2252    89.6739 H5            1 RES     
   10219 H4        -138.0066   -36.4934    91.5043 H4            1 RES     
   10220 H6        -135.1690   -38.8122    94.0220 H6            1 RES     
   10221 H6        -135.3041   -37.3510    92.9261 H6            1 RES     
   10222 H6        -136.4995   -37.4536    95.5669 H6            1 RES     
   10223 H6        -136.2955   -34.7770    94.3345 H6            1 RES     
   10224 H6        -137.1799   -35.7509    93.2524 H6            1 RES     
   10225 H6        -138.6710   -36.5102    95.2456 H6            1 RES     
   10226 H6        -137.7284   -35.3349    96.2477 H6            1 RES     
   10227 H6        -138.5768   -33.4745    94.6733 H6            1 RES     
   10228 H6        -139.5352   -34.7433    93.8127 H6            1 RES     
   10229 H6        -139.7478   -33.9274    96.7904 H6            1 RES     
   10230 H6        -140.6440   -35.3137    96.0555 H6            1 RES     
   10231 H6        -140.9464   -32.3725    95.1697 H6            1 RES     
   10232 H6        -141.8246   -33.8053    94.5022 H6            1 RES     
   10233 H6        -142.7970   -34.2571    96.7834 H6            1 RES     
   10234 H6        -141.9425   -32.7971    97.4218 H6            1 RES     
   10235 H6        -143.2299   -32.6176    96.1712 H6            1 RES     
   10236 H6        -134.0861   -37.4587    95.4441 H6            1 RES     
   10237 H6        -134.0095   -36.2044    94.1785 H6            1 RES     
   10238 H6        -134.6525   -35.6127    97.1413 H6            1 RES     
   10239 H6        -133.0819   -35.6871    96.3123 H6            1 RES     
   10240 H6        -133.8361   -33.8976    94.6625 H6            1 RES     
   10241 H6        -135.1755   -33.5177    95.8133 H6            1 RES     
   10242 H6        -133.3105   -33.1651    97.6211 H6            1 RES     
   10243 H6        -132.1286   -33.5855    96.3503 H6            1 RES     
   10244 H6        -133.0116   -31.6303    94.9546 H6            1 RES     
   10245 H6        -133.8737   -31.0848    96.4350 H6            1 RES     
   10246 H6        -131.6924   -29.9296    96.0744 H6            1 RES     
   10247 H6        -130.8269   -31.4990    95.9636 H6            1 RES     
   10248 H6        -131.2776   -31.9544    98.3696 H6            1 RES     
   10249 H6        -132.1933   -30.3988    98.5051 H6            1 RES     
   10250 H6        -130.1212   -29.1279    97.8852 H6            1 RES     
   10251 H6        -129.2074   -30.6780    97.7251 H6            1 RES     
   10252 H6        -129.8416   -30.1652    99.3314 H6            1 RES     
   10253 H6        -136.2871   -39.1935    90.2838 H6            1 RES     
   10254 H6        -135.9427   -37.5797    90.8845 H6            1 RES     
   10255 H6        -134.0754   -38.3621    89.8742 H6            1 RES     
   10256 H6        -133.3359   -38.3652    92.8716 H6            1 RES     
   10257 H6        -133.6831   -36.9234    91.7806 H6            1 RES     
   10258 H6        -131.2652   -38.7243    91.6897 H6            1 RES     
   10259 H6        -131.7213   -37.4016    90.4964 H6            1 RES     
   10260 H6        -130.0653   -36.6414    91.9749 H6            1 RES     
   10261 H6        -131.5636   -35.7701    92.4490 H6            1 RES     
   10262 H6        -130.4935   -38.3493    93.8091 H6            1 RES     
   10263 H6        -131.7668   -37.2717    94.4710 H6            1 RES     
   10264 H6        -128.7650   -36.6189    93.9665 H6            1 RES     
   10265 H6        -129.4781   -37.0609    95.5557 H6            1 RES     
   10266 H6        -129.1071   -34.6275    95.3822 H6            1 RES     
   10267 H6        -130.8417   -35.0573    95.5679 H6            1 RES     
   10268 H6        -130.2051   -34.5231    93.9567 H6            1 RES     
   10269 H6        -133.3434   -40.8217    91.5812 H6            1 RES     
   10270 H6        -134.2891   -40.8863    90.0459 H6            1 RES     
   10271 H6        -132.7610   -39.7530    88.7289 H6            1 RES     
   10272 H6        -131.5072   -39.6332    89.9318 H6            1 RES     
   10273 H6        -131.1391   -41.0842    88.1600 H6            1 RES     
   10274 H6        -132.3486   -42.2779    88.6555 H6            1 RES     
   10275 H6        -130.8582   -42.9364    90.5700 H6            1 RES     
   10276 H6        -129.9228   -41.3993    90.4380 H6            1 RES     
   10277 H6        -129.0774   -41.9069    88.2348 H6            1 RES     
   10278 H6        -129.9430   -43.4873    88.1702 H6            1 RES     
   10279 H6        -128.4622   -44.3897    89.9302 H6            1 RES     
   10280 H6        -127.6839   -42.7730    90.1659 H6            1 RES     
   10281 H6        -126.8685   -42.7478    87.8247 H6            1 RES     
   10282 H6        -127.6598   -44.3322    87.4889 H6            1 RES     
   10283 H6        -126.1593   -45.4482    89.1287 H6            1 RES     
   10284 H6        -125.3716   -43.8572    89.5062 H6            1 RES     
   10285 H6        -125.2294   -44.5723    87.8592 H6            1 RES     
   10286 C0        -144.5444   -31.0688    87.2204 C0            1 RES     
   10287 C1        -145.5877   -31.9301    87.0240 C1            1 RES     
   10288 C1        -146.1172   -32.4009    88.1706 C1            1 RES     
   10289 C1        -145.4683   -31.9714    89.2074 C1            1 RES     
   10290 C1        -144.3460   -31.1131    88.7896 C1            1 RES     
   10291 C1        -143.2689   -32.0386    89.3352 C1            1 RES     
   10292 C1        -143.6588   -32.9808    90.2425 C1            1 RES     
   10293 S2        -145.4032   -32.8115    90.7511 S2            1 RES     
   10294 C1        -142.7510   -34.1004    90.7349 C1            1 RES     
   10295 C1        -141.3385   -34.0451    90.5469 C1            1 RES     
   10296 N3        -140.5200   -35.0547    90.9629 N3            1 RES     
   10297 C1        -140.9848   -36.1766    91.5570 C1            1 RES     
   10298 C1        -142.3531   -36.3127    91.7549 C1            1 RES     
   10299 C1        -143.2424   -35.2706    91.3514 C1            1 RES     
   10300 N3        -144.5601   -35.5264    91.5875 N3            1 RES     
   10301 S2        -144.5238   -37.0271    92.2883 S2            1 RES     
   10302 N3        -142.9171   -37.4085    92.3187 N3            1 RES     
   10303 S2        -147.3098   -33.5520    87.9387 S2            1 RES     
   10304 C1        -147.1750   -33.4545    86.2536 C1            1 RES     
   10305 C1        -146.1604   -32.5553    85.9036 C1            1 RES     
   10306 C0        -144.9954   -29.6526    86.6160 C0            1 RES     
   10307 C0        -146.2572   -28.8388    86.0327 C0            1 RES     
   10308 C0        -147.0743   -29.5447    84.9050 C0            1 RES     
   10309 C0        -148.5532   -29.7053    85.3051 C0            1 RES     
   10310 C0        -149.3825   -30.5574    84.3275 C0            1 RES     
   10311 C0        -150.8587   -30.5520    84.7685 C0            1 RES     
   10312 C0        -151.7259   -31.5348    83.9719 C0            1 RES     
   10313 C0        -153.1842   -31.4580    84.4297 C0            1 RES     
   10314 C0        -145.6397   -27.4735    85.4911 C0            1 RES     
   10315 C0        -146.4054   -26.3000    84.8030 C0            1 RES     
   10316 C0        -146.6919   -26.4229    83.2749 C0            1 RES     
   10317 C0        -146.7578   -25.0229    82.5906 C0            1 RES     
   10318 C0        -146.9348   -25.0892    81.0594 C0            1 RES     
   10319 C0        -146.5049   -23.7987    80.3143 C0            1 RES     
   10320 C0        -147.2394   -22.5157    80.7298 C0            1 RES     
   10321 C0        -146.7586   -21.3221    79.8933 C0            1 RES     
   10322 C0        -143.2588   -31.4119    86.3245 C0            1 RES     
   10323 C0        -141.9175   -30.4937    86.1143 C0            1 RES     
   10324 C0        -142.2242   -29.0830    85.4686 C0            1 RES     
   10325 C0        -141.0721   -28.2499    84.9163 C0            1 RES     
   10326 C0        -141.4813   -26.9718    84.1621 C0            1 RES     
   10327 C0        -141.9997   -25.8578    85.0951 C0            1 RES     
   10328 C0        -141.9090   -24.4653    84.4449 C0            1 RES     
   10329 C0        -142.8363   -24.2803    83.2562 C0            1 RES     
   10330 C0        -140.8042   -30.4340    87.2569 C0            1 RES     
   10331 C0        -139.3554   -30.2988    86.6513 C0            1 RES     
   10332 C0        -138.0502   -30.3814    87.4899 C0            1 RES     
   10333 C0        -137.4861   -29.0808    88.1500 C0            1 RES     
   10334 C0        -135.9278   -29.1631    88.1547 C0            1 RES     
   10335 C0        -135.1526   -27.9637    88.7419 C0            1 RES     
   10336 C0        -133.6460   -28.1240    88.4174 C0            1 RES     
   10337 C0        -132.7718   -27.0173    89.0053 C0            1 RES     
   10338 H4        -142.2802   -32.0124    88.9582 H4            1 RES     
   10339 H5        -140.8736   -33.1880    90.0876 H5            1 RES     
   10340 H4        -145.8561   -32.4034    84.8802 H4            1 RES     
   10341 H6        -144.5615   -28.9409    87.3506 H6            1 RES     
   10342 H6        -144.5230   -29.6315    85.6547 H6            1 RES     
   10343 H6        -146.9391   -28.5896    86.8752 H6            1 RES     
   10344 H6        -147.0282   -28.9909    83.9503 H6            1 RES     
   10345 H6        -146.6238   -30.4944    84.6411 H6            1 RES     
   10346 H6        -148.6075   -30.2002    86.2998 H6            1 RES     
   10347 H6        -148.9965   -28.6881    85.3851 H6            1 RES     
   10348 H6        -149.3102   -30.1623    83.2903 H6            1 RES     
   10349 H6        -148.9846   -31.5962    84.3423 H6            1 RES     
   10350 H6        -151.2593   -29.5203    84.6497 H6            1 RES     
   10351 H6        -150.9239   -30.8365    85.8415 H6            1 RES     
   10352 H6        -151.6767   -31.3076    82.8855 H6            1 RES     
   10353 H6        -151.3529   -32.5691    84.1397 H6            1 RES     
   10354 H6        -153.2642   -31.6730    85.5174 H6            1 RES     
   10355 H6        -153.5967   -30.4451    84.2324 H6            1 RES     
   10356 H6        -153.7960   -32.2025    83.8782 H6            1 RES     
   10357 H6        -145.1756   -27.0105    86.3895 H6            1 RES     
   10358 H6        -144.8088   -27.7016    84.7868 H6            1 RES     
   10359 H6        -147.2924   -25.9619    85.3755 H6            1 RES     
   10360 H6        -145.6593   -25.4766    84.8684 H6            1 RES     
   10361 H6        -145.8349   -26.9482    82.7956 H6            1 RES     
   10362 H6        -147.6163   -27.0063    83.0885 H6            1 RES     
   10363 H6        -147.5512   -24.3864    83.0360 H6            1 RES     
   10364 H6        -145.7914   -24.5276    82.7687 H6            1 RES     
   10365 H6        -146.2739   -25.8865    80.6541 H6            1 RES     
   10366 H6        -147.9849   -25.3593    80.8186 H6            1 RES     
   10367 H6        -146.6655   -23.9646    79.2260 H6            1 RES     
   10368 H6        -145.4142   -23.6423    80.4728 H6            1 RES     
   10369 H6        -147.0359   -22.2974    81.7994 H6            1 RES     
   10370 H6        -148.3325   -22.6385    80.5832 H6            1 RES     
   10371 H6        -146.9732   -21.4893    78.8155 H6            1 RES     
   10372 H6        -145.6649   -21.1663    80.0187 H6            1 RES     
   10373 H6        -147.2818   -20.3962    80.2140 H6            1 RES     
   10374 H6        -142.9108   -32.4230    86.6299 H6            1 RES     
   10375 H6        -143.6334   -31.5552    85.2851 H6            1 RES     
   10376 H6        -141.4209   -31.0827    85.3131 H6            1 RES     
   10377 H6        -142.7402   -28.4378    86.2046 H6            1 RES     
   10378 H6        -142.8457   -29.2739    84.5677 H6            1 RES     
   10379 H6        -140.4364   -27.8940    85.7461 H6            1 RES     
   10380 H6        -140.5113   -28.8931    84.2041 H6            1 RES     
   10381 H6        -140.5408   -26.6011    83.7024 H6            1 RES     
   10382 H6        -142.1996   -27.1892    83.3405 H6            1 RES     
   10383 H6        -141.3345   -25.8047    85.9828 H6            1 RES     
   10384 H6        -143.0274   -26.0779    85.4534 H6            1 RES     
   10385 H6        -140.8612   -24.2818    84.1218 H6            1 RES     
   10386 H6        -142.1707   -23.6980    85.2053 H6            1 RES     
   10387 H6        -142.7023   -23.2604    82.8358 H6            1 RES     
   10388 H6        -143.8698   -24.3803    83.6174 H6            1 RES     
   10389 H6        -142.6344   -25.0209    82.4556 H6            1 RES     
   10390 H6        -141.0487   -29.6697    88.0268 H6            1 RES     
   10391 H6        -140.7446   -31.4244    87.7365 H6            1 RES     
   10392 H6        -139.2874   -31.1647    85.9579 H6            1 RES     
   10393 H6        -139.1928   -29.4270    86.0264 H6            1 RES     
   10394 H6        -137.3144   -30.6162    86.6880 H6            1 RES     
   10395 H6        -138.0232   -31.2485    88.1818 H6            1 RES     
   10396 H6        -137.9125   -28.9381    89.1667 H6            1 RES     
   10397 H6        -137.7447   -28.1934    87.5321 H6            1 RES     
   10398 H6        -135.6163   -29.2418    87.0883 H6            1 RES     
   10399 H6        -135.5988   -30.0839    88.6826 H6            1 RES     
   10400 H6        -135.3101   -27.9207    89.8412 H6            1 RES     
   10401 H6        -135.5068   -27.0127    88.2882 H6            1 RES     
   10402 H6        -133.5113   -28.1134    87.3121 H6            1 RES     
   10403 H6        -133.2741   -29.0977    88.8035 H6            1 RES     
   10404 H6        -132.8192   -27.0333    90.1139 H6            1 RES     
   10405 H6        -133.0869   -26.0209    88.6314 H6            1 RES     
   10406 H6        -131.7143   -27.1852    88.7000 H6            1 RES     
   10407 C0        -149.7990   -39.2905    79.6321 C0            1 RES     
   10408 C1        -150.0900   -40.2590    80.5520 C1            1 RES     
   10409 C1        -150.9893   -39.8672    81.4764 C1            1 RES     
   10410 C1        -151.3298   -38.6268    81.3152 C1            1 RES     
   10411 C1        -150.6059   -38.0415    80.1732 C1            1 RES     
   10412 C1        -149.8464   -37.0249    81.0122 C1            1 RES     
   10413 C1        -150.3276   -36.7662    82.2630 C1            1 RES     
   10414 S2        -151.9208   -37.5878    82.6052 S2            1 RES     
   10415 C1        -149.5822   -35.9288    83.2941 C1            1 RES     
   10416 C1        -148.5003   -35.0800    82.9165 C1            1 RES     
   10417 N3        -147.8111   -34.3449    83.8368 N3            1 RES     
   10418 C1        -148.0864   -34.3834    85.1597 C1            1 RES     
   10419 C1        -149.1137   -35.2048    85.6070 C1            1 RES     
   10420 C1        -149.8720   -35.9759    84.6742 C1            1 RES     
   10421 N3        -150.8432   -36.7501    85.2355 N3            1 RES     
   10422 S2        -150.6940   -36.4140    86.8508 S2            1 RES     
   10423 N3        -149.4493   -35.3302    86.9141 N3            1 RES     
   10424 S2        -151.2561   -41.0005    82.6788 S2            1 RES     
   10425 C1        -150.1649   -42.0951    81.9871 C1            1 RES     
   10426 C1        -149.5730   -41.5307    80.8506 C1            1 RES     
   10427 C0        -150.2660   -39.8549    78.2046 C0            1 RES     
   10428 C0        -151.0902   -41.0400    77.4898 C0            1 RES     
   10429 C0        -150.7097   -42.4959    77.9057 C0            1 RES     
   10430 C0        -151.9291   -43.2527    78.4654 C0            1 RES     
   10431 C0        -151.5951   -44.6285    79.0696 C0            1 RES     
   10432 C0        -152.8990   -45.3335    79.4898 C0            1 RES     
   10433 C0        -152.6543   -46.6230    80.2835 C0            1 RES     
   10434 C0        -153.9823   -47.2948    80.6403 C0            1 RES     
   10435 C0        -150.8301   -40.8280    75.9321 C0            1 RES     
   10436 C0        -151.3761   -41.6999    74.7581 C0            1 RES     
   10437 C0        -150.5943   -43.0014    74.4014 C0            1 RES     
   10438 C0        -150.7372   -43.3587    72.8899 C0            1 RES     
   10439 C0        -149.8978   -44.5797    72.4598 C0            1 RES     
   10440 C0        -149.6166   -44.6515    70.9362 C0            1 RES     
   10441 C0        -150.8576   -44.7023    70.0332 C0            1 RES     
   10442 C0        -150.4490   -44.8163    68.5582 C0            1 RES     
   10443 C0        -148.2250   -39.0834    79.4026 C0            1 RES     
   10444 C0        -147.4975   -38.1914    78.2358 C0            1 RES     
   10445 C0        -147.8362   -38.6863    76.7724 C0            1 RES     
   10446 C0        -146.9998   -38.1794    75.6020 C0            1 RES     
   10447 C0        -147.2947   -38.8389    74.2427 C0            1 RES     
   10448 C0        -148.6396   -38.3930    73.6323 C0            1 RES     
   10449 C0        -148.6911   -38.6189    72.1104 C0            1 RES     
   10450 C0        -148.6788   -40.0828    71.7053 C0            1 RES     
   10451 C0        -147.4419   -36.6012    78.3651 C0            1 RES     
   10452 C0        -146.1081   -36.0148    77.7641 C0            1 RES     
   10453 C0        -145.6796   -34.5263    77.8848 C0            1 RES     
   10454 C0        -146.1697   -33.5035    76.8080 C0            1 RES     
   10455 C0        -145.0532   -32.4341    76.5959 C0            1 RES     
   10456 C0        -145.3138   -31.3301    75.5483 C0            1 RES     
   10457 C0        -144.0030   -30.5405    75.3049 C0            1 RES     
   10458 C0        -144.1606   -29.3792    74.3244 C0            1 RES     
   10459 H4        -148.9341   -36.6071    80.6754 H4            1 RES     
   10460 H5        -148.2100   -34.9785    81.8835 H5            1 RES     
   10461 H4        -148.7890   -42.0303    80.3039 H4            1 RES     
   10462 H6        -150.6754   -38.9429    77.7199 H6            1 RES     
   10463 H6        -149.3543   -40.2105    77.7684 H6            1 RES     
   10464 H6        -152.1750   -40.8798    77.6754 H6            1 RES     
   10465 H6        -150.2964   -43.0746    77.0603 H6            1 RES     
   10466 H6        -149.8829   -42.4916    78.6064 H6            1 RES     
   10467 H6        -152.3943   -42.6440    79.2718 H6            1 RES     
   10468 H6        -152.6629   -43.3745    77.6382 H6            1 RES     
   10469 H6        -151.0546   -45.2677    78.3372 H6            1 RES     
   10470 H6        -150.9432   -44.4733    79.9576 H6            1 RES     
   10471 H6        -153.4865   -45.5656    78.5733 H6            1 RES     
   10472 H6        -153.4973   -44.6502    80.1312 H6            1 RES     
   10473 H6        -152.0378   -47.3343    79.6931 H6            1 RES     
   10474 H6        -152.1152   -46.3755    81.2243 H6            1 RES     
   10475 H6        -154.6256   -46.6024    81.2255 H6            1 RES     
   10476 H6        -154.5230   -47.5933    79.7165 H6            1 RES     
   10477 H6        -153.7972   -48.2035    81.2509 H6            1 RES     
   10478 H6        -151.2273   -39.8096    75.7271 H6            1 RES     
   10479 H6        -149.7337   -40.7841    75.7469 H6            1 RES     
   10480 H6        -152.4716   -41.8625    74.8074 H6            1 RES     
   10481 H6        -151.1985   -41.0347    73.8834 H6            1 RES     
   10482 H6        -149.5080   -42.8165    74.5619 H6            1 RES     
   10483 H6        -150.9109   -43.8458    75.0467 H6            1 RES     
   10484 H6        -151.7994   -43.5099    72.6036 H6            1 RES     
   10485 H6        -150.3537   -42.5023    72.3152 H6            1 RES     
   10486 H6        -148.8936   -44.5116    72.9326 H6            1 RES     
   10487 H6        -150.3844   -45.5104    72.8213 H6            1 RES     
   10488 H6        -149.0005   -45.5583    70.7463 H6            1 RES     
   10489 H6        -149.0092   -43.7657    70.6438 H6            1 RES     
   10490 H6        -151.4516   -43.7727    70.1605 H6            1 RES     
   10491 H6        -151.4863   -45.5772    70.2993 H6            1 RES     
   10492 H6        -149.8767   -45.7530    68.3832 H6            1 RES     
   10493 H6        -149.8191   -43.9520    68.2545 H6            1 RES     
   10494 H6        -151.3526   -44.8333    67.9124 H6            1 RES     
   10495 H6        -147.7962   -38.7522    80.3738 H6            1 RES     
   10496 H6        -147.7969   -40.1002    79.2484 H6            1 RES     
   10497 H6        -146.4421   -38.4927    78.4118 H6            1 RES     
   10498 H6        -148.8858   -38.4378    76.5260 H6            1 RES     
   10499 H6        -147.6478   -39.7811    76.7553 H6            1 RES     
   10500 H6        -147.1954   -37.1047    75.4402 H6            1 RES     
   10501 H6        -145.9341   -38.3797    75.8465 H6            1 RES     
   10502 H6        -146.4924   -38.4701    73.5692 H6            1 RES     
   10503 H6        -147.2128   -39.9475    74.2952 H6            1 RES     
   10504 H6        -148.7385   -37.2947    73.7637 H6            1 RES     
   10505 H6        -149.4962   -38.8754    74.1486 H6            1 RES     
   10506 H6        -147.8286   -38.1022    71.6361 H6            1 RES     
   10507 H6        -149.6230   -38.1620    71.7126 H6            1 RES     
   10508 H6        -148.7035   -40.1618    70.5971 H6            1 RES     
   10509 H6        -149.5854   -40.5520    72.1130 H6            1 RES     
   10510 H6        -147.7738   -40.6062    72.0759 H6            1 RES     
   10511 H6        -148.3665   -36.1261    77.9701 H6            1 RES     
   10512 H6        -147.3290   -36.3426    79.4304 H6            1 RES     
   10513 H6        -145.3163   -36.5700    78.3116 H6            1 RES     
   10514 H6        -145.9329   -36.2381    76.7170 H6            1 RES     
   10515 H6        -144.5874   -34.6185    77.6899 H6            1 RES     
   10516 H6        -145.7651   -34.1235    78.9152 H6            1 RES     
   10517 H6        -147.1435   -33.0562    77.1038 H6            1 RES     
   10518 H6        -146.2989   -34.0110    75.8272 H6            1 RES     
   10519 H6        -144.1529   -32.9881    76.2456 H6            1 RES     
   10520 H6        -144.8074   -31.9462    77.5636 H6            1 RES     
   10521 H6        -146.1135   -30.6506    75.9141 H6            1 RES     
   10522 H6        -145.6339   -31.7787    74.5828 H6            1 RES     
   10523 H6        -143.2353   -31.2332    74.8918 H6            1 RES     
   10524 H6        -143.6208   -30.1307    76.2648 H6            1 RES     
   10525 H6        -144.8673   -28.6246    74.7274 H6            1 RES     
   10526 H6        -144.5190   -29.7383    73.3373 H6            1 RES     
   10527 H6        -143.1725   -28.8872    74.1781 H6            1 RES     
   10528 C0        -145.7879   -49.3543    85.5833 C0            1 RES     
   10529 C1        -146.1979   -49.0217    86.8443 C1            1 RES     
   10530 C1        -147.5374   -48.9355    86.9669 C1            1 RES     
   10531 C1        -148.1339   -49.1301    85.8326 C1            1 RES     
   10532 C1        -147.1439   -49.3699    84.7680 C1            1 RES     
   10533 C1        -147.5023   -48.1204    83.9778 C1            1 RES     
   10534 C1        -148.7006   -47.5296    84.2571 C1            1 RES     
   10535 S2        -149.7208   -48.4894    85.4269 S2            1 RES     
   10536 C1        -149.1206   -46.1755    83.7003 C1            1 RES     
   10537 C1        -148.4461   -45.5907    82.5882 C1            1 RES     
   10538 N3        -148.7997   -44.3672    82.0981 N3            1 RES     
   10539 C1        -149.7887   -43.6201    82.6376 C1            1 RES     
   10540 C1        -150.4779   -44.1141    83.7381 C1            1 RES     
   10541 C1        -150.1517   -45.3988    84.2699 C1            1 RES     
   10542 N3        -150.8889   -45.7670    85.3555 N3            1 RES     
   10543 S2        -151.8988   -44.4716    85.5711 S2            1 RES     
   10544 N3        -151.4674   -43.4309    84.3634 N3            1 RES     
   10545 S2        -148.0430   -48.4055    88.4719 S2            1 RES     
   10546 C1        -146.4529   -48.2815    89.0406 C1            1 RES     
   10547 C1        -145.5507   -48.6112    88.0218 C1            1 RES     
   10548 C0        -145.0310   -50.7642    85.7014 C0            1 RES     
   10549 C0        -144.7318   -51.9911    86.7012 C0            1 RES     
   10550 C0        -144.1840   -51.6145    88.1139 C0            1 RES     
   10551 C0        -145.1001   -52.1532    89.2291 C0            1 RES     
   10552 C0        -144.7298   -51.6646    90.6411 C0            1 RES     
   10553 C0        -145.6385   -52.3544    91.6765 C0            1 RES     
   10554 C0        -145.4785   -51.7818    93.0903 C0            1 RES     
   10555 C0        -146.3775   -52.5292    94.0779 C0            1 RES     
   10556 C0        -143.6735   -52.8941    85.9245 C0            1 RES     
   10557 C0        -143.0138   -54.2166    86.4271 C0            1 RES     
   10558 C0        -141.7690   -54.0936    87.3585 C0            1 RES     
   10559 C0        -140.8105   -55.3134    87.1968 C0            1 RES     
   10560 C0        -139.5101   -55.1929    88.0183 C0            1 RES     
   10561 C0        -138.3532   -56.0926    87.5107 C0            1 RES     
   10562 C0        -138.6482   -57.5993    87.4789 C0            1 RES     
   10563 C0        -137.4165   -58.3817    87.0031 C0            1 RES     
   10564 C0        -144.6236   -48.4045    85.0216 C0            1 RES     
   10565 C0        -143.7289   -48.6211    83.6655 C0            1 RES     
   10566 C0        -142.8861   -49.9591    83.6834 C0            1 RES     
   10567 C0        -141.7711   -50.1513    82.6605 C0            1 RES     
   10568 C0        -140.9008   -51.4056    82.8574 C0            1 RES     
   10569 C0        -141.6309   -52.7135    82.4877 C0            1 RES     
   10570 C0        -140.6507   -53.8612    82.1844 C0            1 RES     
   10571 C0        -139.8540   -54.3245    83.3917 C0            1 RES     
   10572 C0        -144.3557   -48.2913    82.2348 C0            1 RES     
   10573 C0        -143.2715   -47.7245    81.2412 C0            1 RES     
   10574 C0        -143.5950   -47.1560    79.8320 C0            1 RES     
   10575 C0        -143.6545   -48.1331    78.6124 C0            1 RES     
   10576 C0        -143.1387   -47.3789    77.3474 C0            1 RES     
   10577 C0        -143.0856   -48.1666    76.0204 C0            1 RES     
   10578 C0        -142.3117   -47.3354    74.9663 C0            1 RES     
   10579 C0        -142.2490   -47.9970    73.5904 C0            1 RES     
   10580 H4        -146.8124   -47.6777    83.3082 H4            1 RES     
   10581 H5        -147.6474   -46.1131    82.0872 H5            1 RES     
   10582 H4        -144.4836   -48.5216    88.1492 H4            1 RES     
   10583 H6        -145.3563   -51.2779    84.7715 H6            1 RES     
   10584 H6        -143.9954   -50.4897    85.7101 H6            1 RES     
   10585 H6        -145.6627   -52.5883    86.8188 H6            1 RES     
   10586 H6        -143.1636   -52.0036    88.2807 H6            1 RES     
   10587 H6        -144.0373   -50.5438    88.1962 H6            1 RES     
   10588 H6        -146.1439   -51.8240    89.0308 H6            1 RES     
   10589 H6        -145.0610   -53.2644    89.1944 H6            1 RES     
   10590 H6        -143.6674   -51.8928    90.8787 H6            1 RES     
   10591 H6        -144.8757   -50.5624    90.6809 H6            1 RES     
   10592 H6        -145.4017   -53.4420    91.6856 H6            1 RES     
   10593 H6        -146.7017   -52.2254    91.3777 H6            1 RES     
   10594 H6        -144.4236   -51.8654    93.4288 H6            1 RES     
   10595 H6        -145.7697   -50.7084    93.0842 H6            1 RES     
   10596 H6        -147.4411   -52.4701    93.7600 H6            1 RES     
   10597 H6        -146.0790   -53.5981    94.1371 H6            1 RES     
   10598 H6        -146.2874   -52.0804    95.0894 H6            1 RES     
   10599 H6        -144.2008   -53.1869    84.9901 H6            1 RES     
   10600 H6        -142.8099   -52.2631    85.6170 H6            1 RES     
   10601 H6        -143.7496   -54.9586    86.7973 H6            1 RES     
   10602 H6        -142.5988   -54.6334    85.4820 H6            1 RES     
   10603 H6        -141.1765   -53.2057    87.0414 H6            1 RES     
   10604 H6        -142.0744   -53.9586    88.4160 H6            1 RES     
   10605 H6        -141.3215   -56.2700    87.4354 H6            1 RES     
   10606 H6        -140.5061   -55.3505    86.1401 H6            1 RES     
   10607 H6        -139.1233   -54.1540    87.9309 H6            1 RES     
   10608 H6        -139.7285   -55.3883    89.0896 H6            1 RES     
   10609 H6        -137.4720   -55.9159    88.1665 H6            1 RES     
   10610 H6        -138.0762   -55.7702    86.4819 H6            1 RES     
   10611 H6        -139.4840   -57.8025    86.7766 H6            1 RES     
   10612 H6        -138.9280   -57.9538    88.4926 H6            1 RES     
   10613 H6        -136.5639   -58.2284    87.6996 H6            1 RES     
   10614 H6        -137.1088   -58.0545    85.9860 H6            1 RES     
   10615 H6        -137.6458   -59.4679    86.9656 H6            1 RES     
   10616 H6        -145.0414   -47.3752    84.9694 H6            1 RES     
   10617 H6        -143.8549   -48.3460    85.8259 H6            1 RES     
   10618 H6        -142.9882   -47.8044    83.8072 H6            1 RES     
   10619 H6        -143.5602   -50.8286    83.5651 H6            1 RES     
   10620 H6        -142.3403   -49.9784    84.6509 H6            1 RES     
   10621 H6        -142.2050   -50.2670    81.6516 H6            1 RES     
   10622 H6        -141.1025   -49.2662    82.7307 H6            1 RES     
   10623 H6        -140.0633   -51.2848    82.1382 H6            1 RES     
   10624 H6        -140.4670   -51.4507    83.8812 H6            1 RES     
   10625 H6        -142.1855   -52.5506    81.5394 H6            1 RES     
   10626 H6        -142.3680   -52.9980    83.2678 H6            1 RES     
   10627 H6        -139.9478   -53.5383    81.3859 H6            1 RES     
   10628 H6        -141.2266   -54.7310    81.8004 H6            1 RES     
   10629 H6        -139.1629   -55.1407    83.0897 H6            1 RES     
   10630 H6        -140.5645   -54.7193    84.1318 H6            1 RES     
   10631 H6        -139.2558   -53.5011    83.8325 H6            1 RES     
   10632 H6        -144.9349   -49.1518    81.8338 H6            1 RES     
   10633 H6        -145.0252   -47.4223    82.3403 H6            1 RES     
   10634 H6        -142.8491   -46.8571    81.7929 H6            1 RES     
   10635 H6        -142.4250   -48.3770    81.0559 H6            1 RES     
   10636 H6        -142.6783   -46.5518    79.6473 H6            1 RES     
   10637 H6        -144.4348   -46.4308    79.8296 H6            1 RES     
   10638 H6        -144.6813   -48.5390    78.4825 H6            1 RES     
   10639 H6        -142.9564   -48.9844    78.7681 H6            1 RES     
   10640 H6        -142.0905   -47.0759    77.5705 H6            1 RES     
   10641 H6        -143.7400   -46.4588    77.1836 H6            1 RES     
   10642 H6        -144.1193   -48.3733    75.6684 H6            1 RES     
   10643 H6        -142.5522   -49.1315    76.1625 H6            1 RES     
   10644 H6        -141.2666   -47.1861    75.3203 H6            1 RES     
   10645 H6        -142.7841   -46.3365    74.8464 H6            1 RES     
   10646 H6        -143.2682   -48.1036    73.1646 H6            1 RES     
   10647 H6        -141.7620   -48.9925    73.6498 H6            1 RES     
   10648 H6        -141.6503   -47.3570    72.9036 H6            1 RES     
   10649 C0        -142.9218   -43.6067    96.1445 C0            1 RES     
   10650 C1        -144.1040   -42.9504    96.3460 C1            1 RES     
   10651 C1        -145.1469   -43.7775    96.5574 C1            1 RES     
   10652 C1        -144.7967   -45.0217    96.4591 C1            1 RES     
   10653 C1        -143.3639   -45.1260    96.1317 C1            1 RES     
   10654 C1        -143.5908   -45.7797    94.7769 C1            1 RES     
   10655 C1        -144.8172   -46.3346    94.5510 C1            1 RES     
   10656 S2        -145.8931   -46.3265    96.0250 S2            1 RES     
   10657 C1        -145.2686   -46.8515    93.1913 C1            1 RES     
   10658 C1        -144.3313   -47.1042    92.1467 C1            1 RES     
   10659 N3        -144.7291   -47.5441    90.9177 N3            1 RES     
   10660 C1        -146.0264   -47.7496    90.5979 C1            1 RES     
   10661 C1        -147.0004   -47.5039    91.5577 C1            1 RES     
   10662 C1        -146.6247   -47.0609    92.8624 C1            1 RES     
   10663 N3        -147.6695   -46.8432    93.7101 N3            1 RES     
   10664 S2        -148.9850   -47.2248    92.7783 S2            1 RES     
   10665 N3        -148.3270   -47.6565    91.3263 N3            1 RES     
   10666 S2        -146.6181   -42.9887    96.6783 S2            1 RES     
   10667 C1        -145.9014   -41.4697    96.4634 C1            1 RES     
   10668 C1        -144.5249   -41.6133    96.2507 C1            1 RES     
   10669 C0        -141.9454   -43.1765    97.3429 C0            1 RES     
   10670 C0        -141.8968   -42.4115    98.7596 C0            1 RES     
   10671 C0        -142.5189   -40.9799    98.7945 C0            1 RES     
   10672 C0        -143.6439   -40.8862    99.8425 C0            1 RES     
   10673 C0        -144.4308   -39.5637    99.8070 C0            1 RES     
   10674 C0        -145.4461   -39.5405   100.9656 C0            1 RES     
   10675 C0        -146.4121   -38.3514   100.8924 C0            1 RES     
   10676 C0        -147.3701   -38.3628   102.0859 C0            1 RES     
   10677 C0        -140.3482   -42.3468    99.1288 C0            1 RES     
   10678 C0        -139.7077   -41.6989   100.3964 C0            1 RES     
   10679 C0        -139.4541   -40.1603   100.3707 C0            1 RES     
   10680 C0        -138.2354   -39.7662   101.2608 C0            1 RES     
   10681 C0        -137.8746   -38.2679   101.1894 C0            1 RES     
   10682 C0        -136.4233   -37.9429   101.6294 C0            1 RES     
   10683 C0        -136.0544   -38.3581   103.0610 C0            1 RES     
   10684 C0        -134.6135   -37.9441   103.3900 C0            1 RES     
   10685 C0        -142.1142   -43.0834    94.8612 C0            1 RES     
   10686 C0        -140.5779   -43.4582    94.4302 C0            1 RES     
   10687 C0        -139.5065   -43.0310    95.5122 C0            1 RES     
   10688 C0        -138.0295   -43.0133    95.1319 C0            1 RES     
   10689 C0        -137.0796   -42.4290    96.1930 C0            1 RES     
   10690 C0        -136.8808   -43.3606    97.4066 C0            1 RES     
   10691 C0        -135.5867   -43.0433    98.1778 C0            1 RES     
   10692 C0        -135.5992   -41.6912    98.8698 C0            1 RES     
   10693 C0        -140.2605   -44.8687    93.7532 C0            1 RES     
   10694 C0        -139.1029   -44.7563    92.6896 C0            1 RES     
   10695 C0        -138.6747   -45.9120    91.7437 C0            1 RES     
   10696 C0        -137.6084   -46.9441    92.2373 C0            1 RES     
   10697 C0        -136.7507   -47.3941    91.0138 C0            1 RES     
   10698 C0        -135.6098   -48.4011    91.2752 C0            1 RES     
   10699 C0        -134.7293   -48.5129    90.0051 C0            1 RES     
   10700 C0        -133.5982   -49.5323    90.1318 C0            1 RES     
   10701 H4        -142.8615   -45.7245    94.0118 H4            1 RES     
   10702 H5        -143.2735   -46.9747    92.3079 H5            1 RES     
   10703 H4        -143.8903   -40.7742    96.0135 H4            1 RES     
   10704 H6        -141.4133   -44.1278    97.5581 H6            1 RES     
   10705 H6        -141.3284   -42.4205    96.9006 H6            1 RES     
   10706 H6        -142.3992   -43.0457    99.5228 H6            1 RES     
   10707 H6        -141.7646   -40.2051    99.0204 H6            1 RES     
   10708 H6        -142.8616   -40.6858    97.8093 H6            1 RES     
   10709 H6        -144.3732   -41.7071    99.6654 H6            1 RES     
   10710 H6        -143.1856   -41.0231   100.8469 H6            1 RES     
   10711 H6        -143.7499   -38.6891    99.9012 H6            1 RES     
   10712 H6        -144.9636   -39.4980    98.8327 H6            1 RES     
   10713 H6        -144.8852   -39.5067   101.9265 H6            1 RES     
   10714 H6        -146.0536   -40.4715   100.9420 H6            1 RES     
   10715 H6        -145.8516   -37.3921   100.8894 H6            1 RES     
   10716 H6        -147.0077   -38.4224    99.9558 H6            1 RES     
   10717 H6        -147.9402   -39.3165   102.1203 H6            1 RES     
   10718 H6        -146.8036   -38.2484   103.0352 H6            1 RES     
   10719 H6        -148.0926   -37.5240   102.0021 H6            1 RES     
   10720 H6        -140.0360   -43.4131    99.1766 H6            1 RES     
   10721 H6        -139.7889   -41.8901    98.2820 H6            1 RES     
   10722 H6        -140.1751   -42.0365   101.3432 H6            1 RES     
   10723 H6        -138.6847   -42.1375   100.3797 H6            1 RES     
   10724 H6        -139.1731   -39.8656    99.3343 H6            1 RES     
   10725 H6        -140.3655   -39.6013   100.6651 H6            1 RES     
   10726 H6        -138.3860   -40.0692   102.3184 H6            1 RES     
   10727 H6        -137.3613   -40.3131   100.8766 H6            1 RES     
   10728 H6        -137.9339   -37.9327   100.1307 H6            1 RES     
   10729 H6        -138.6119   -37.6803   101.7766 H6            1 RES     
   10730 H6        -136.2747   -36.8450   101.5274 H6            1 RES     
   10731 H6        -135.7180   -38.4438   100.9288 H6            1 RES     
   10732 H6        -136.1331   -39.4611   103.1630 H6            1 RES     
   10733 H6        -136.7406   -37.8740   103.7865 H6            1 RES     
   10734 H6        -134.5012   -36.8399   103.3288 H6            1 RES     
   10735 H6        -133.8958   -38.4149   102.6833 H6            1 RES     
   10736 H6        -134.3503   -38.2654   104.4202 H6            1 RES     
   10737 H6        -142.7537   -43.2803    93.9728 H6            1 RES     
   10738 H6        -142.0916   -41.9724    94.9397 H6            1 RES     
   10739 H6        -140.4483   -42.7433    93.5890 H6            1 RES     
   10740 H6        -139.5845   -43.6898    96.3977 H6            1 RES     
   10741 H6        -139.7111   -41.9674    95.7597 H6            1 RES     
   10742 H6        -137.6716   -44.0459    94.9737 H6            1 RES     
   10743 H6        -137.9317   -42.3904    94.2165 H6            1 RES     
   10744 H6        -136.0980   -42.3475    95.6799 H6            1 RES     
   10745 H6        -137.3874   -41.4059    96.5043 H6            1 RES     
   10746 H6        -136.7472   -44.3986    97.0350 H6            1 RES     
   10747 H6        -137.7692   -43.3499    98.0726 H6            1 RES     
   10748 H6        -134.7251   -43.0859    97.4765 H6            1 RES     
   10749 H6        -135.4331   -43.8235    98.9544 H6            1 RES     
   10750 H6        -134.6302   -41.5311    99.3897 H6            1 RES     
   10751 H6        -136.4038   -41.7044    99.6188 H6            1 RES     
   10752 H6        -135.7550   -40.8609    98.1511 H6            1 RES     
   10753 H6        -140.1021   -45.6622    94.5160 H6            1 RES     
   10754 H6        -141.1135   -45.1471    93.1133 H6            1 RES     
   10755 H6        -139.4657   -43.9630    92.0011 H6            1 RES     
   10756 H6        -138.1571   -44.3852    93.0700 H6            1 RES     
   10757 H6        -138.1437   -45.3346    90.9537 H6            1 RES     
   10758 H6        -139.5276   -46.4030    91.2310 H6            1 RES     
   10759 H6        -138.0966   -47.7967    92.7575 H6            1 RES     
   10760 H6        -136.9022   -46.4577    92.9450 H6            1 RES     
   10761 H6        -136.2668   -46.4732    90.6164 H6            1 RES     
   10762 H6        -137.4098   -47.8108    90.2220 H6            1 RES     
   10763 H6        -136.0401   -49.3918    91.5372 H6            1 RES     
   10764 H6        -134.9683   -48.0523    92.1135 H6            1 RES     
   10765 H6        -134.2711   -47.5202    89.7946 H6            1 RES     
   10766 H6        -135.3543   -48.7995    89.1318 H6            1 RES     
   10767 H6        -134.0100   -50.5530    90.2736 H6            1 RES     
   10768 H6        -132.9272   -49.2783    90.9786 H6            1 RES     
   10769 H6        -132.9948   -49.5277    89.1961 H6            1 RES     
   10770 C0        -149.5122   -33.3858    93.9333 C0            1 RES     
   10771 C1        -150.7037   -33.9768    93.6173 C1            1 RES     
   10772 C1        -151.2571   -34.6503    94.6453 C1            1 RES     
   10773 C1        -150.4933   -34.6343    95.6926 C1            1 RES     
   10774 C1        -149.2530   -33.8907    95.4104 C1            1 RES     
   10775 C1        -148.3400   -35.0941    95.5909 C1            1 RES     
   10776 C1        -148.8539   -36.1718    96.2524 C1            1 RES     
   10777 S2        -150.5123   -35.8644    96.9494 S2            1 RES     
   10778 C1        -148.1453   -37.5167    96.3470 C1            1 RES     
   10779 C1        -146.7568   -37.6447    96.0481 C1            1 RES     
   10780 N3        -146.1193   -38.8499    96.1065 N3            1 RES     
   10781 C1        -146.7541   -39.9995    96.4272 C1            1 RES     
   10782 C1        -148.1136   -39.9580    96.7104 C1            1 RES     
   10783 C1        -148.8142   -38.7139    96.6792 C1            1 RES     
   10784 N3        -150.1441   -38.8047    96.9629 N3            1 RES     
   10785 S2        -150.3515   -40.4248    97.2399 S2            1 RES     
   10786 N3        -148.8425   -41.0584    97.0182 N3            1 RES     
   10787 S2        -152.6502   -35.4816    94.2334 S2            1 RES     
   10788 C1        -152.5777   -34.9492    92.6277 C1            1 RES     
   10789 C1        -151.4325   -34.1678    92.4314 C1            1 RES     
   10790 C0        -149.7230   -31.8041    93.7659 C0            1 RES     
   10791 C0        -150.8395   -30.6658    93.5372 C0            1 RES     
   10792 C0        -151.8235   -30.8912    92.3461 C0            1 RES     
   10793 C0        -153.2867   -30.9103    92.8275 C0            1 RES     
   10794 C0        -154.3025   -31.3135    91.7434 C0            1 RES     
   10795 C0        -155.7306   -31.1869    92.3073 C0            1 RES     
   10796 C0        -156.7993   -31.7573    91.3665 C0            1 RES     
   10797 C0        -158.1961   -31.5706    91.9635 C0            1 RES     
   10798 C0        -150.0076   -29.3250    93.3162 C0            1 RES     
   10799 C0        -150.5759   -27.8987    93.0344 C0            1 RES     
   10800 C0        -150.9503   -27.5490    91.5614 C0            1 RES     
   10801 C0        -150.7896   -26.0239    91.2767 C0            1 RES     
   10802 C0        -151.0463   -25.6377    89.8052 C0            1 RES     
   10803 C0        -150.4216   -24.2811    89.3869 C0            1 RES     
   10804 C0        -150.8883   -23.0588    90.1908 C0            1 RES     
   10805 C0        -150.2357   -21.7774    89.6545 C0            1 RES     
   10806 C0        -148.3541   -33.6763    92.8620 C0            1 RES     
   10807 C0        -146.8782   -32.9688    92.7743 C0            1 RES     
   10808 C0        -146.9503   -31.4048    92.5522 C0            1 RES     
   10809 C0        -145.6916   -30.6530    92.1313 C0            1 RES     
   10810 C0        -145.8936   -29.1680    91.7799 C0            1 RES     
   10811 C0        -146.1552   -28.2832    93.0164 C0            1 RES     
   10812 C0        -145.8406   -26.8003    92.7477 C0            1 RES     
   10813 C0        -146.7720   -26.1467    91.7416 C0            1 RES     
   10814 C0        -145.7213   -33.4085    93.7827 C0            1 RES     
   10815 C0        -144.3019   -33.3521    93.1001 C0            1 RES     
   10816 C0        -142.9967   -33.8748    93.7612 C0            1 RES     
   10817 C0        -142.1736   -32.9160    94.6827 C0            1 RES     
   10818 C0        -140.6584   -33.2512    94.5190 C0            1 RES     
   10819 C0        -139.6500   -32.4031    95.3241 C0            1 RES     
   10820 C0        -138.2150   -32.7134    94.8288 C0            1 RES     
   10821 C0        -137.1263   -31.9695    95.6009 C0            1 RES     
   10822 H4        -147.3818   -35.1283    95.1427 H4            1 RES     
   10823 H5        -146.1643   -36.7829    95.7875 H5            1 RES     
   10824 H4        -151.1530   -33.7932    91.4595 H4            1 RES     
   10825 H6        -149.1324   -31.4025    94.6169 H6            1 RES     
   10826 H6        -149.2996   -31.5980    92.8035 H6            1 RES     
   10827 H6        -151.4246   -30.5488    94.4759 H6            1 RES     
   10828 H6        -151.7207   -30.1122    91.5696 H6            1 RES     
   10829 H6        -151.5676   -31.7927    91.8017 H6            1 RES     
   10830 H6        -153.3850   -31.6431    93.6585 H6            1 RES     
   10831 H6        -153.5316   -29.8956    93.2122 H6            1 RES     
   10832 H6        -154.2069   -30.6664    90.8437 H6            1 RES     
   10833 H6        -154.1017   -32.3671    91.4484 H6            1 RES     
   10834 H6        -155.9401   -30.1109    92.5009 H6            1 RES     
   10835 H6        -155.7973   -31.7399    93.2696 H6            1 RES     
   10836 H6        -156.7595   -31.2520    90.3778 H6            1 RES     
   10837 H6        -156.6152   -32.8445    91.2219 H6            1 RES     
   10838 H6        -158.2638   -32.0594    92.9595 H6            1 RES     
   10839 H6        -158.4243   -30.4889    92.0778 H6            1 RES     
   10840 H6        -158.9589   -32.0243    91.2964 H6            1 RES     
   10841 H6        -149.4255   -29.2089    94.2568 H6            1 RES     
   10842 H6        -149.2661   -29.4844    92.5019 H6            1 RES     
   10843 H6        -151.3584   -27.5896    93.7563 H6            1 RES     
   10844 H6        -149.6891   -27.2589    93.2426 H6            1 RES     
   10845 H6        -150.2273   -28.0559    90.8830 H6            1 RES     
   10846 H6        -151.9737   -27.8988    91.3166 H6            1 RES     
   10847 H6        -151.4314   -25.4127    91.9458 H6            1 RES     
   10848 H6        -149.7416   -25.7621    91.4865 H6            1 RES     
   10849 H6        -150.5623   -26.3906    89.1451 H6            1 RES     
   10850 H6        -152.1380   -25.6552    89.6020 H6            1 RES     
   10851 H6        -150.6601   -24.1135    88.3131 H6            1 RES     
   10852 H6        -149.3147   -24.3555    89.4774 H6            1 RES     
   10853 H6        -150.5990   -23.1787    91.2563 H6            1 RES     
   10854 H6        -151.9909   -22.9555    90.1207 H6            1 RES     
   10855 H6        -150.5269   -21.6050    88.5956 H6            1 RES     
   10856 H6        -149.1274   -21.8437    89.7128 H6            1 RES     
   10857 H6        -150.5648   -20.9021    90.2541 H6            1 RES     
   10858 H6        -148.1839   -34.7753    92.8580 H6            1 RES     
   10859 H6        -148.7962   -33.4655    91.8614 H6            1 RES     
   10860 H6        -146.5356   -33.3888    91.8038 H6            1 RES     
   10861 H6        -147.3046   -30.9105    93.4765 H6            1 RES     
   10862 H6        -147.6371   -31.2365    91.6952 H6            1 RES     
   10863 H6        -144.9638   -30.6478    92.9617 H6            1 RES     
   10864 H6        -145.2918   -31.1593    91.2261 H6            1 RES     
   10865 H6        -144.9233   -28.8451    91.3468 H6            1 RES     
   10866 H6        -146.6768   -29.0307    91.0013 H6            1 RES     
   10867 H6        -145.4513   -28.5856    93.8204 H6            1 RES     
   10868 H6        -147.1882   -28.4212    93.3995 H6            1 RES     
   10869 H6        -144.7930   -26.7099    92.3868 H6            1 RES     
   10870 H6        -145.9216   -26.2389    93.7036 H6            1 RES     
   10871 H6        -146.4727   -25.0870    91.5921 H6            1 RES     
   10872 H6        -147.7885   -26.1708    92.1596 H6            1 RES     
   10873 H6        -146.7466   -26.6621    90.7597 H6            1 RES     
   10874 H6        -145.7856   -32.8553    94.7453 H6            1 RES     
   10875 H6        -145.8224   -34.4883    93.9786 H6            1 RES     
   10876 H6        -144.4259   -33.9936    92.2011 H6            1 RES     
   10877 H6        -144.0110   -32.3814    92.7128 H6            1 RES     
   10878 H6        -142.3543   -33.9982    92.8603 H6            1 RES     
   10879 H6        -143.0973   -34.8906    94.1964 H6            1 RES     
   10880 H6        -142.5192   -32.9897    95.7367 H6            1 RES     
   10881 H6        -142.2932   -31.8632    94.3457 H6            1 RES     
   10882 H6        -140.4161   -33.0845    93.4449 H6            1 RES     
   10883 H6        -140.4799   -34.3225    94.7543 H6            1 RES     
   10884 H6        -139.7460   -32.6379    96.4061 H6            1 RES     
   10885 H6        -139.8442   -31.3193    95.1706 H6            1 RES     
   10886 H6        -138.1318   -32.4223    93.7572 H6            1 RES     
   10887 H6        -138.0107   -33.8029    94.9098 H6            1 RES     
   10888 H6        -137.1247   -32.2809    96.6660 H6            1 RES     
   10889 H6        -137.2702   -30.8711    95.5322 H6            1 RES     
   10890 H6        -136.1328   -32.2185    95.1642 H6            1 RES     
   10891 C0        -156.5308   -38.2321    84.9868 C0            1 RES     
   10892 C1        -156.9519   -39.3543    85.6443 C1            1 RES     
   10893 C1        -157.7203   -39.0890    86.7193 C1            1 RES     
   10894 C1        -157.8345   -37.8136    86.9211 C1            1 RES     
   10895 C1        -157.0690   -37.0646    85.9093 C1            1 RES     
   10896 C1        -156.0979   -36.4561    86.9099 C1            1 RES     
   10897 C1        -156.4652   -36.4751    88.2243 C1            1 RES     
   10898 S2        -158.1646   -37.0858    88.4878 S2            1 RES     
   10899 C1        -155.5320   -36.0868    89.3638 C1            1 RES     
   10900 C1        -154.3313   -35.3566    89.1215 C1            1 RES     
   10901 N3        -153.4772   -35.0256    90.1330 N3            1 RES     
   10902 C1        -153.6935   -35.3797    91.4195 C1            1 RES     
   10903 C1        -154.8324   -36.1120    91.7308 C1            1 RES     
   10904 C1        -155.7615   -36.4623    90.7044 C1            1 RES     
   10905 N3        -156.8313   -37.1904    91.1322 N3            1 RES     
   10906 S2        -156.5487   -37.3394    92.7578 S2            1 RES     
   10907 N3        -155.1246   -36.5342    92.9851 N3            1 RES     
   10908 S2        -158.1348   -40.4488    87.6028 S2            1 RES     
   10909 C1        -157.2962   -41.4755    86.5493 C1            1 RES     
   10910 C1        -156.6638   -40.7262    85.5497 C1            1 RES     
   10911 C0        -157.1588   -38.2988    83.5118 C0            1 RES     
   10912 C0        -158.2186   -39.0903    82.5925 C0            1 RES     
   10913 C0        -158.0930   -40.6464    82.5752 C0            1 RES     
   10914 C0        -159.4034   -41.3168    83.0294 C0            1 RES     
   10915 C0        -159.3001   -42.8410    83.2184 C0            1 RES     
   10916 C0        -160.6904   -43.4101    83.5601 C0            1 RES     
   10917 C0        -160.6501   -44.8898    83.9619 C0            1 RES     
   10918 C0        -162.0610   -45.4061    84.2538 C0            1 RES     
   10919 C0        -157.9962   -38.5049    81.1274 C0            1 RES     
   10920 C0        -158.7465   -38.9195    79.8228 C0            1 RES     
   10921 C0        -158.2341   -40.1832    79.0661 C0            1 RES     
   10922 C0        -158.5098   -40.0838    77.5341 C0            1 RES     
   10923 C0        -157.9295   -41.2606    76.7224 C0            1 RES     
   10924 C0        -157.7368   -40.9570    75.2137 C0            1 RES     
   10925 C0        -159.0064   -40.5537    74.4497 C0            1 RES     
   10926 C0        -158.6942   -40.3242    72.9647 C0            1 RES     
   10927 C0        -154.9579   -38.2314    84.6725 C0            1 RES     
   10928 C0        -154.1336   -37.1857    83.7167 C0            1 RES     
   10929 C0        -154.6245   -37.1977    82.2135 C0            1 RES     
   10930 C0        -153.7642   -36.5337    81.1432 C0            1 RES     
   10931 C0        -154.2376   -36.7374    79.6927 C0            1 RES     
   10932 C0        -155.5045   -35.9267    79.3495 C0            1 RES     
   10933 C0        -155.6668   -35.7149    77.8334 C0            1 RES     
   10934 C0        -155.9420   -36.9928    77.0600 C0            1 RES     
   10935 C0        -153.7812   -35.7236    84.2519 C0            1 RES     
   10936 C0        -152.3917   -35.2220    83.7027 C0            1 RES     
   10937 C0        -151.6922   -33.9152    84.1679 C0            1 RES     
   10938 C0        -152.0354   -32.5702    83.4473 C0            1 RES     
   10939 C0        -150.7526   -31.6820    83.4185 C0            1 RES     
   10940 C0        -150.8542   -30.3059    82.7256 C0            1 RES     
   10941 C0        -149.4334   -29.7062    82.5753 C0            1 RES     
   10942 C0        -149.4203   -28.3111    81.9522 C0            1 RES     
   10943 H4        -155.1409   -36.1177    86.6099 H4            1 RES     
   10944 H5        -154.0753   -35.0248    88.1284 H5            1 RES     
   10945 H4        -156.0109   -41.1783    84.8201 H4            1 RES     
   10946 H6        -157.4158   -37.2345    83.3235 H6            1 RES     
   10947 H6        -156.3490   -38.6658    82.9140 H6            1 RES     
   10948 H6        -159.2459   -38.8113    82.9148 H6            1 RES     
   10949 H6        -157.8324   -41.0307    81.5728 H6            1 RES     
   10950 H6        -157.2480   -40.9703    83.1717 H6            1 RES     
   10951 H6        -159.7112   -40.8847    84.0071 H6            1 RES     
   10952 H6        -160.1845   -41.0848    82.2721 H6            1 RES     
   10953 H6        -158.9204   -43.3345    82.2967 H6            1 RES     
   10954 H6        -158.5904   -43.0444    84.0506 H6            1 RES     
   10955 H6        -161.3522   -43.2822    82.6743 H6            1 RES     
   10956 H6        -161.1229   -42.8403    84.4113 H6            1 RES     
   10957 H6        -160.2025   -45.5030    83.1507 H6            1 RES     
   10958 H6        -160.0319   -45.0018    84.8797 H6            1 RES     
   10959 H6        -162.5386   -44.8049    85.0576 H6            1 RES     
   10960 H6        -162.6893   -45.3468    83.3391 H6            1 RES     
   10961 H6        -162.0178   -46.4650    84.5851 H6            1 RES     
   10962 H6        -158.2088   -37.4185    81.2343 H6            1 RES     
   10963 H6        -156.9201   -38.5926    80.8578 H6            1 RES     
   10964 H6        -159.8498   -38.9072    79.9306 H6            1 RES     
   10965 H6        -158.4904   -38.0784    79.1400 H6            1 RES     
   10966 H6        -157.1262   -40.2304    79.1665 H6            1 RES     
   10967 H6        -158.6703   -41.1083    79.4946 H6            1 RES     
   10968 H6        -159.5937   -39.9741    77.3194 H6            1 RES     
   10969 H6        -158.0025   -39.1777    77.1701 H6            1 RES     
   10970 H6        -156.9091   -41.4907    77.1000 H6            1 RES     
   10971 H6        -158.5614   -42.1617    76.8718 H6            1 RES     
   10972 H6        -157.3071   -41.8653    74.7360 H6            1 RES     
   10973 H6        -156.9913   -40.1372    75.1076 H6            1 RES     
   10974 H6        -159.4132   -39.6102    74.8712 H6            1 RES     
   10975 H6        -159.7720   -41.3524    74.5355 H6            1 RES     
   10976 H6        -158.3122   -41.2578    72.4975 H6            1 RES     
   10977 H6        -157.9310   -39.5254    72.8399 H6            1 RES     
   10978 H6        -159.6144   -40.0149    72.4249 H6            1 RES     
   10979 H6        -154.4312   -38.2544    85.6517 H6            1 RES     
   10980 H6        -154.7312   -39.2229    84.2180 H6            1 RES     
   10981 H6        -153.1445   -37.6928    83.7077 H6            1 RES     
   10982 H6        -155.6210   -36.7223    82.1405 H6            1 RES     
   10983 H6        -154.6413   -38.2613    81.8927 H6            1 RES     
   10984 H6        -153.7666   -35.4389    81.2875 H6            1 RES     
   10985 H6        -152.7433   -36.9656    81.2254 H6            1 RES     
   10986 H6        -153.4131   -36.3350    79.0668 H6            1 RES     
   10987 H6        -154.3582   -37.8157    79.4452 H6            1 RES     
   10988 H6        -155.3940   -34.9058    79.7725 H6            1 RES     
   10989 H6        -156.4103   -36.3847    79.7998 H6            1 RES     
   10990 H6        -154.7469   -35.2368    77.4319 H6            1 RES     
   10991 H6        -156.5164   -35.0198    77.6585 H6            1 RES     
   10992 H6        -156.0319   -36.7597    75.9772 H6            1 RES     
   10993 H6        -156.8996   -37.4004    77.4141 H6            1 RES     
   10994 H6        -155.1323   -37.7391    77.1939 H6            1 RES     
   10995 H6        -154.6201   -35.0132    84.0838 H6            1 RES     
   10996 H6        -153.5738   -35.7892    85.3323 H6            1 RES     
   10997 H6        -151.6908   -36.0283    84.0088 H6            1 RES     
   10998 H6        -152.3089   -35.1753    82.6220 H6            1 RES     
   10999 H6        -150.6456   -34.1284    83.8538 H6            1 RES     
   11000 H6        -151.6547   -33.8021    85.2711 H6            1 RES     
   11001 H6        -152.8958   -32.0676    83.9402 H6            1 RES     
   11002 H6        -152.3006   -32.7609    82.3845 H6            1 RES     
   11003 H6        -149.9864   -32.2588    82.8523 H6            1 RES     
   11004 H6        -150.3771   -31.5255    84.4526 H6            1 RES     
   11005 H6        -151.4979   -29.6311    83.3301 H6            1 RES     
   11006 H6        -151.2954   -30.4136    81.7109 H6            1 RES     
   11007 H6        -148.8257   -30.3753    81.9250 H6            1 RES     
   11008 H6        -148.9386   -29.6439    83.5686 H6            1 RES     
   11009 H6        -149.9572   -27.5905    82.6033 H6            1 RES     
   11010 H6        -149.8836   -28.3218    80.9438 H6            1 RES     
   11011 H6        -148.3665   -27.9670    81.8475 H6            1 RES     
   11012 C0        -154.1644   -50.0588    87.6920 C0            1 RES     
   11013 C1        -154.4479   -50.0221    89.0288 C1            1 RES     
   11014 C1        -155.7417   -49.7541    89.2952 C1            1 RES     
   11015 C1        -156.4154   -49.5295    88.2108 C1            1 RES     
   11016 C1        -155.5365   -49.6273    87.0324 C1            1 RES     
   11017 C1        -155.6956   -48.1677    86.6340 C1            1 RES     
   11018 C1        -156.7509   -47.4878    87.1697 C1            1 RES     
   11019 S2        -157.8748   -48.5506    88.1381 S2            1 RES     
   11020 C1        -156.9405   -45.9831    87.0287 C1            1 RES     
   11021 C1        -156.2222   -45.2347    86.0501 C1            1 RES     
   11022 N3        -156.3674   -43.8829    85.9329 N3            1 RES     
   11023 C1        -157.1766   -43.1605    86.7396 C1            1 RES     
   11024 C1        -157.8932   -43.8173    87.7322 C1            1 RES     
   11025 C1        -157.7842   -45.2340    87.8761 C1            1 RES     
   11026 N3        -158.5255   -45.7596    88.8918 N3            1 RES     
   11027 S2        -159.2694   -44.4255    89.5330 S2            1 RES     
   11028 N3        -158.7106   -43.1790    88.6047 N3            1 RES     
   11029 S2        -156.0714   -49.5817    90.9270 S2            1 RES     
   11030 C1        -154.4611   -49.8813    91.3563 C1            1 RES     
   11031 C1        -153.6827   -50.0624    90.2065 C1            1 RES     
   11032 C0        -153.6745   -51.5514    87.3652 C0            1 RES     
   11033 C0        -153.5597   -53.0372    87.9764 C0            1 RES     
   11034 C0        -152.8876   -53.1578    89.3804 C0            1 RES     
   11035 C0        -153.8345   -53.8236    90.3967 C0            1 RES     
   11036 C0        -153.3161   -53.8087    91.8461 C0            1 RES     
   11037 C0        -154.2872   -54.5970    92.7455 C0            1 RES     
   11038 C0        -153.9597   -54.4685    94.2384 C0            1 RES     
   11039 C0        -154.9341   -55.3000    95.0760 C0            1 RES     
   11040 C0        -152.7221   -53.8536    86.8944 C0            1 RES     
   11041 C0        -152.2939   -55.3529    86.9691 C0            1 RES     
   11042 C0        -151.0060   -55.6962    87.7788 C0            1 RES     
   11043 C0        -150.2962   -56.9650    87.2141 C0            1 RES     
   11044 C0        -148.9593   -57.2897    87.9123 C0            1 RES     
   11045 C0        -148.0118   -58.1929    87.0805 C0            1 RES     
   11046 C0        -148.5794   -59.5634    86.6833 C0            1 RES     
   11047 C0        -147.5355   -60.3765    85.9057 C0            1 RES     
   11048 C0        -152.8729   -49.1960    87.2916 C0            1 RES     
   11049 C0        -152.0966   -49.1761    85.8481 C0            1 RES     
   11050 C0        -151.5138   -50.5873    85.4358 C0            1 RES     
   11051 C0        -150.5014   -50.6719    84.2981 C0            1 RES     
   11052 C0        -149.8680   -52.0574    84.0771 C0            1 RES     
   11053 C0        -150.8419   -53.0753    83.4483 C0            1 RES     
   11054 C0        -150.1041   -54.2406    82.7644 C0            1 RES     
   11055 C0        -149.3511   -55.1415    83.7279 C0            1 RES     
   11056 C0        -152.7176   -48.3684    84.6191 C0            1 RES     
   11057 C0        -151.5949   -47.7368    83.7111 C0            1 RES     
   11058 C0        -151.8731   -46.7585    82.5367 C0            1 RES     
   11059 C0        -152.1672   -47.3401    81.1150 C0            1 RES     
   11060 C0        -151.5807   -46.3632    80.0488 C0            1 RES     
   11061 C0        -151.7344   -46.7543    78.5630 C0            1 RES     
   11062 C0        -150.8705   -45.8048    77.6953 C0            1 RES     
   11063 C0        -150.9939   -46.0646    76.1946 C0            1 RES     
   11064 H4        -154.9678   -47.6779    86.0419 H4            1 RES     
   11065 H5        -155.5569   -45.7234    85.3571 H5            1 RES     
   11066 H4        -152.6125   -50.1876    90.2519 H4            1 RES     
   11067 H6        -154.1312   -51.7296    86.3682 H6            1 RES     
   11068 H6        -152.6069   -51.4637    87.3481 H6            1 RES     
   11069 H6        -154.5780   -53.4825    88.0206 H6            1 RES     
   11070 H6        -151.9493   -53.7398    89.3428 H6            1 RES     
   11071 H6        -152.5433   -52.1899    89.7259 H6            1 RES     
   11072 H6        -154.8082   -53.2859    90.3906 H6            1 RES     
   11073 H6        -154.0016   -54.8735    90.0689 H6            1 RES     
   11074 H6        -152.3038   -54.2646    91.9146 H6            1 RES     
   11075 H6        -153.2553   -52.7514    92.1865 H6            1 RES     
   11076 H6        -154.2538   -55.6690    92.4474 H6            1 RES     
   11077 H6        -155.3213   -54.2183    92.5924 H6            1 RES     
   11078 H6        -152.9236   -54.8139    94.4424 H6            1 RES     
   11079 H6        -154.0490   -53.4020    94.5409 H6            1 RES     
   11080 H6        -155.9823   -54.9822    94.8861 H6            1 RES     
   11081 H6        -154.8345   -56.3780    94.8250 H6            1 RES     
   11082 H6        -154.7166   -55.1670    96.1566 H6            1 RES     
   11083 H6        -153.3368   -53.7882    85.9699 H6            1 RES     
   11084 H6        -151.7726   -53.3132    86.6830 H6            1 RES     
   11085 H6        -153.1355   -56.0367    87.1996 H6            1 RES     
   11086 H6        -152.0065   -55.5568    85.9131 H6            1 RES     
   11087 H6        -150.2759   -54.8652    87.6508 H6            1 RES     
   11088 H6        -151.2323   -55.8082    88.8586 H6            1 RES     
   11089 H6        -150.9625   -57.8530    87.2409 H6            1 RES     
   11090 H6        -150.0528   -56.7603    86.1607 H6            1 RES     
   11091 H6        -148.3928   -56.3448    88.0639 H6            1 RES     
   11092 H6        -149.1602   -57.7328    88.9108 H6            1 RES     
   11093 H6        -147.0838   -58.3501    87.6738 H6            1 RES     
   11094 H6        -147.7281   -57.6508    86.1506 H6            1 RES     
   11095 H6        -149.4699   -59.4261    86.0342 H6            1 RES     
   11096 H6        -148.8725   -60.1314    87.5906 H6            1 RES     
   11097 H6        -146.6380   -60.5623    86.5347 H6            1 RES     
   11098 H6        -147.2203   -59.8381    84.9855 H6            1 RES     
   11099 H6        -147.9618   -61.3578    85.6070 H6            1 RES     
   11100 H6        -153.0966   -48.1377    87.5501 H6            1 RES     
   11101 H6        -152.0702   -49.4873    88.0071 H6            1 RES     
   11102 H6        -151.2129   -48.5628    86.1283 H6            1 RES     
   11103 H6        -152.3407   -51.2680    85.1581 H6            1 RES     
   11104 H6        -150.9367   -50.9605    86.3088 H6            1 RES     
   11105 H6        -150.9952   -50.4336    83.3395 H6            1 RES     
   11106 H6        -149.6792   -49.9623    84.5343 H6            1 RES     
   11107 H6        -149.0566   -51.8831    83.3391 H6            1 RES     
   11108 H6        -149.4030   -52.4520    85.0079 H6            1 RES     
   11109 H6        -151.4004   -52.5698    82.6323 H6            1 RES     
   11110 H6        -151.5820   -53.4378    84.1925 H6            1 RES     
   11111 H6        -149.3914   -53.8311    82.0158 H6            1 RES     
   11112 H6        -150.8469   -54.8648    82.2221 H6            1 RES     
   11113 H6        -148.8361   -55.9455    83.1592 H6            1 RES     
   11114 H6        -150.0870   -55.6020    84.4023 H6            1 RES     
   11115 H6        -148.5922   -54.5804    84.3106 H6            1 RES     
   11116 H6        -153.4627   -48.9786    84.0632 H6            1 RES     
   11117 H6        -153.2106   -47.4640    85.0109 H6            1 RES     
   11118 H6        -150.9955   -47.1356    84.4283 H6            1 RES     
   11119 H6        -150.8919   -48.4433    83.2827 H6            1 RES     
   11120 H6        -150.8706   -46.2859    82.4312 H6            1 RES     
   11121 H6        -152.5649   -45.9328    82.8032 H6            1 RES     
   11122 H6        -153.2559   -47.5206    80.9807 H6            1 RES     
   11123 H6        -151.6308   -48.3041    80.9761 H6            1 RES     
   11124 H6        -150.4855   -46.3094    80.2439 H6            1 RES     
   11125 H6        -152.0098   -45.3478    80.1889 H6            1 RES     
   11126 H6        -152.8036   -46.6840    78.2680 H6            1 RES     
   11127 H6        -151.3810   -47.7952    78.3969 H6            1 RES     
   11128 H6        -149.8005   -45.9320    77.9761 H6            1 RES     
   11129 H6        -151.1566   -44.7478    77.8860 H6            1 RES     
   11130 H6        -152.0339   -45.8815    75.8535 H6            1 RES     
   11131 H6        -150.6956   -47.1042    75.9454 H6            1 RES     
   11132 H6        -150.3202   -45.3682    75.6461 H6            1 RES     
   11133 C0        -149.8081   -47.9798    99.0713 C0            1 RES     
   11134 C1        -150.8391   -47.2191    99.5477 C1            1 RES     
   11135 C1        -152.0053   -47.8895    99.6324 C1            1 RES     
   11136 C1        -151.8942   -49.0991    99.1795 C1            1 RES     
   11137 C1        -150.5216   -49.3433    98.7029 C1            1 RES     
   11138 C1        -150.9268   -49.5539    97.2518 C1            1 RES     
   11139 C1        -152.2433   -49.8163    97.0049 C1            1 RES     
   11140 S2        -153.2303   -50.0363    98.5241 S2            1 RES     
   11141 C1        -152.8442   -49.8591    95.6060 C1            1 RES     
   11142 C1        -152.0184   -49.9660    94.4483 C1            1 RES     
   11143 N3        -152.5465   -49.9804    93.1901 N3            1 RES     
   11144 C1        -153.8728   -49.8744    92.9512 C1            1 RES     
   11145 C1        -154.7398   -49.7449    94.0290 C1            1 RES     
   11146 C1        -154.2294   -49.7446    95.3629 C1            1 RES     
   11147 N3        -155.1762   -49.5992    96.3324 N3            1 RES     
   11148 S2        -156.5810   -49.4893    95.4612 S2            1 RES     
   11149 N3        -156.0811   -49.6081    93.8916 N3            1 RES     
   11150 S2        -153.2995   -46.9337   100.0934 S2            1 RES     
   11151 C1        -152.3269   -45.5531   100.2171 C1            1 RES     
   11152 C1        -151.0114   -45.8569    99.8458 C1            1 RES     
   11153 C0        -148.7150   -48.0612   100.2431 C0            1 RES     
   11154 C0        -148.4615   -47.7329   101.7996 C0            1 RES     
   11155 C0        -148.8080   -46.2838   102.2663 C0            1 RES     
   11156 C0        -149.8472   -46.2977   103.4033 C0            1 RES     
   11157 C0        -150.3788   -44.9056   103.7894 C0            1 RES     
   11158 C0        -151.3180   -45.0347   105.0038 C0            1 RES     
   11159 C0        -152.0517   -43.7292   105.3356 C0            1 RES     
   11160 C0        -152.9394   -43.9101   106.5691 C0            1 RES     
   11161 C0        -146.9120   -48.0270   102.0255 C0            1 RES     
   11162 C0        -146.1057   -47.8660   103.3524 C0            1 RES     
   11163 C0        -145.5755   -46.4427   103.7065 C0            1 RES     
   11164 C0        -144.2654   -46.5135   104.5501 C0            1 RES     
   11165 C0        -143.6395   -45.1334   104.8397 C0            1 RES     
   11166 C0        -142.1344   -45.1845   105.2109 C0            1 RES     
   11167 C0        -141.7823   -46.0312   106.4427 C0            1 RES     
   11168 C0        -140.2763   -45.9657   106.7315 C0            1 RES     
   11169 C0        -148.9782   -47.2647    97.8995 C0            1 RES     
   11170 C0        -147.5583   -47.7539    97.2430 C0            1 RES     
   11171 C0        -146.3780   -47.8217    98.2933 C0            1 RES     
   11172 C0        -144.9419   -47.9432    97.7938 C0            1 RES     
   11173 C0        -143.8530   -47.8365    98.8765 C0            1 RES     
   11174 C0        -143.7727   -49.0847    99.7798 C0            1 RES     
   11175 C0        -142.4083   -49.2080   100.4819 C0            1 RES     
   11176 C0        -142.1404   -48.1147   101.5016 C0            1 RES     
   11177 C0        -147.5368   -48.9568    96.1937 C0            1 RES     
   11178 C0        -146.4285   -48.7487    95.0926 C0            1 RES     
   11179 C0        -146.2638   -49.6546    93.8413 C0            1 RES     
   11180 C0        -145.3834   -50.9430    93.9450 C0            1 RES     
   11181 C0        -144.6802   -51.1747    92.5713 C0            1 RES     
   11182 C0        -143.7327   -52.3879    92.4515 C0            1 RES     
   11183 C0        -142.9473   -52.2901    91.1194 C0            1 RES     
   11184 C0        -142.0178   -53.4765    90.8680 C0            1 RES     
   11185 H4        -150.2359   -49.4115    96.4628 H4            1 RES     
   11186 H5        -150.9485   -50.0612    94.5376 H5            1 RES     
   11187 H4        -150.2452   -45.1010    99.7778 H4            1 RES     
   11188 H6        -148.3572   -49.1090   100.1508 H6            1 RES     
   11189 H6        -147.9908   -47.3249    99.9581 H6            1 RES     
   11190 H6        -149.0360   -48.4606   102.4139 H6            1 RES     
   11191 H6        -147.9147   -45.7354   102.6152 H6            1 RES     
   11192 H6        -149.1361   -45.6787   101.4292 H6            1 RES     
   11193 H6        -150.7221   -46.9072   103.0869 H6            1 RES     
   11194 H6        -149.3759   -46.7781   104.2891 H6            1 RES     
   11195 H6        -149.5453   -44.2146   104.0447 H6            1 RES     
   11196 H6        -150.9349   -44.4886   102.9208 H6            1 RES     
   11197 H6        -150.7167   -45.3583   105.8829 H6            1 RES     
   11198 H6        -152.0864   -45.8107   104.7946 H6            1 RES     
   11199 H6        -151.3254   -42.9115   105.5310 H6            1 RES     
   11200 H6        -152.6928   -43.4419   104.4734 H6            1 RES     
   11201 H6        -153.6726   -44.7296   106.4061 H6            1 RES     
   11202 H6        -152.3184   -44.1551   107.4576 H6            1 RES     
   11203 H6        -153.4988   -42.9737   106.7761 H6            1 RES     
   11204 H6        -146.7989   -49.1018   101.7630 H6            1 RES     
   11205 H6        -146.3181   -47.4539   101.2790 H6            1 RES     
   11206 H6        -146.5829   -48.3688   104.2175 H6            1 RES     
   11207 H6        -145.1824   -48.4449   103.1254 H6            1 RES     
   11208 H6        -145.2932   -45.9253   102.7618 H6            1 RES     
   11209 H6        -146.3542   -45.8441   104.2213 H6            1 RES     
   11210 H6        -144.4200   -47.0660   105.5008 H6            1 RES     
   11211 H6        -143.5251   -47.0699   103.9557 H6            1 RES     
   11212 H6        -143.6850   -44.5158   103.9161 H6            1 RES     
   11213 H6        -144.2285   -44.6167   105.6269 H6            1 RES     
   11214 H6        -141.7917   -44.1407   105.3863 H6            1 RES     
   11215 H6        -141.5661   -45.5828   104.3406 H6            1 RES     
   11216 H6        -142.0573   -47.0913   106.2594 H6            1 RES     
   11217 H6        -142.3337   -45.6587   107.3308 H6            1 RES     
   11218 H6        -139.9662   -44.9211   106.9511 H6            1 RES     
   11219 H6        -139.6905   -46.3358   105.8620 H6            1 RES     
   11220 H6        -140.0292   -46.5959   107.6122 H6            1 RES     
   11221 H6        -149.6832   -47.1025    97.0549 H6            1 RES     
   11222 H6        -148.7485   -46.2372    98.2637 H6            1 RES     
   11223 H6        -147.3387   -46.8670    96.6099 H6            1 RES     
   11224 H6        -146.5345   -48.6760    98.9788 H6            1 RES     
   11225 H6        -146.3722   -46.8482    98.8287 H6            1 RES     
   11226 H6        -144.7873   -48.9370    97.3379 H6            1 RES     
   11227 H6        -144.7739   -47.1180    97.0683 H6            1 RES     
   11228 H6        -142.8978   -47.7798    98.3127 H6            1 RES     
   11229 H6        -143.9531   -46.9020    99.4723 H6            1 RES     
   11230 H6        -143.8492   -49.9883    99.1386 H6            1 RES     
   11231 H6        -144.6124   -49.1114   100.5059 H6            1 RES     
   11232 H6        -141.6024   -49.1975    99.7161 H6            1 RES     
   11233 H6        -142.3647   -50.1855   101.0093 H6            1 RES     
   11234 H6        -141.1356   -48.2647   101.9518 H6            1 RES     
   11235 H6        -142.8983   -48.2005   102.2933 H6            1 RES     
   11236 H6        -142.1742   -47.1052   101.0433 H6            1 RES     
   11237 H6        -147.4917   -49.9439    96.7038 H6            1 RES     
   11238 H6        -148.4549   -48.9050    95.5864 H6            1 RES     
   11239 H6        -146.6710   -47.7485    94.6730 H6            1 RES     
   11240 H6        -145.4142   -48.6566    95.4661 H6            1 RES     
   11241 H6        -145.6729   -48.9780    93.1836 H6            1 RES     
   11242 H6        -147.2150   -49.8392    93.3005 H6            1 RES     
   11243 H6        -145.9953   -51.8134    94.2674 H6            1 RES     
   11244 H6        -144.5680   -50.7922    94.6856 H6            1 RES     
   11245 H6        -144.0544   -50.2725    92.3850 H6            1 RES     
   11246 H6        -145.4404   -51.2442    91.7637 H6            1 RES     
   11247 H6        -144.3249   -53.3278    92.4844 H6            1 RES     
   11248 H6        -143.0001   -52.3926    93.2877 H6            1 RES     
   11249 H6        -142.3248   -51.3669    91.1339 H6            1 RES     
   11250 H6        -143.6538   -52.2194    90.2643 H6            1 RES     
   11251 H6        -142.6030   -54.4149    90.7758 H6            1 RES     
   11252 H6        -141.2732   -53.5783    91.6847 H6            1 RES     
   11253 H6        -141.4677   -53.3145    89.9136 H6            1 RES     
   11254 C0        -154.5056   -36.6066   100.2422 C0            1 RES     
   11255 C1        -155.7986   -36.8842    99.8961 C1            1 RES     
   11256 C1        -156.4182   -37.7135   100.7593 C1            1 RES     
   11257 C1        -155.6170   -38.1109   101.6976 C1            1 RES     
   11258 C1        -154.2756   -37.5327   101.5045 C1            1 RES     
   11259 C1        -153.5917   -38.8724   101.2771 C1            1 RES     
   11260 C1        -154.2635   -39.9905   101.6788 C1            1 RES     
   11261 S2        -155.8034   -39.6181   102.5847 S2            1 RES     
   11262 C1        -153.8102   -41.4071   101.3510 C1            1 RES     
   11263 C1        -152.4841   -41.6745   100.8997 C1            1 RES     
   11264 N3        -152.0765   -42.9371   100.5805 N3            1 RES     
   11265 C1        -152.8960   -44.0101   100.6474 C1            1 RES     
   11266 C1        -154.2103   -43.8253   101.0581 C1            1 RES     
   11267 C1        -154.6713   -42.5228   101.4196 C1            1 RES     
   11268 N3        -155.9808   -42.4683   101.7935 N3            1 RES     
   11269 S2        -156.4690   -44.0453   101.6550 S2            1 RES     
   11270 N3        -155.1137   -44.8326   101.1343 N3            1 RES     
   11271 S2        -157.9577   -38.1595   100.2771 S2            1 RES     
   11272 C1        -157.8629   -37.2265    98.8672 C1            1 RES     
   11273 C1        -156.6040   -36.6203    98.7756 C1            1 RES     
   11274 C0        -154.4301   -35.0273   100.5152 C0            1 RES     
   11275 C0        -155.3281   -33.7027   100.6985 C0            1 RES     
   11276 C0        -156.3906   -33.4280    99.5880 C0            1 RES     
   11277 C0        -157.8086   -33.3379   100.1830 C0            1 RES     
   11278 C0        -158.9301   -33.2558    99.1317 C0            1 RES     
   11279 C0        -160.2832   -33.0560    99.8407 C0            1 RES     
   11280 C0        -161.4806   -33.1629    98.8883 C0            1 RES     
   11281 C0        -162.7904   -32.9204    99.6420 C0            1 RES     
   11282 C0        -154.2753   -32.5082   100.7589 C0            1 RES     
   11283 C0        -154.5846   -30.9861   100.9150 C0            1 RES     
   11284 C0        -154.9560   -30.1893    99.6268 C0            1 RES     
   11285 C0        -154.5315   -28.6926    99.7374 C0            1 RES     
   11286 C0        -154.7805   -27.8809    98.4491 C0            1 RES     
   11287 C0        -153.9375   -26.5834    98.3436 C0            1 RES     
   11288 C0        -154.1343   -25.5690    99.4796 C0            1 RES     
   11289 C0        -153.2831   -24.3149    99.2385 C0            1 RES     
   11290 C0        -153.4712   -36.7782    99.0283 C0            1 RES     
   11291 C0        -151.8962   -36.3262    98.9904 C0            1 RES     
   11292 C0        -151.6902   -34.7714    99.1931 C0            1 RES     
   11293 C0        -150.3357   -34.1503    98.8672 C0            1 RES     
   11294 C0        -150.2778   -32.6137    98.9373 C0            1 RES     
   11295 C0        -150.3151   -32.0714   100.3812 C0            1 RES     
   11296 C0        -149.7465   -30.6443   100.4816 C0            1 RES     
   11297 C0        -150.5876   -29.5961    99.7739 C0            1 RES     
   11298 C0        -150.7944   -37.2093    99.7351 C0            1 RES     
   11299 C0        -149.4217   -37.2017    98.9606 C0            1 RES     
   11300 C0        -148.2056   -38.0926    99.3361 C0            1 RES     
   11301 C0        -147.1788   -37.5720   100.3948 C0            1 RES     
   11302 C0        -145.7600   -38.0935   100.0073 C0            1 RES     
   11303 C0        -144.5771   -37.6763   100.9077 C0            1 RES     
   11304 C0        -143.2478   -38.0701   100.2158 C0            1 RES     
   11305 C0        -142.0067   -37.7557   101.0498 C0            1 RES     
   11306 H4        -152.6777   -38.9391   100.7474 H4            1 RES     
   11307 H5        -151.7561   -40.8837   100.8192 H5            1 RES     
   11308 H4        -156.3057   -36.0447    97.9137 H4            1 RES     
   11309 H6        -153.7372   -34.9771   101.3822 H6            1 RES     
   11310 H6        -154.0209   -34.6377    99.6049 H6            1 RES     
   11311 H6        -155.8378   -33.7532   101.6858 H6            1 RES     
   11312 H6        -156.1825   -32.4938    99.0363 H6            1 RES     
   11313 H6        -156.3299   -34.1750    98.8050 H6            1 RES     
   11314 H6        -158.0013   -34.2440   100.7986 H6            1 RES     
   11315 H6        -157.8451   -32.4418   100.8411 H6            1 RES     
   11316 H6        -158.7590   -32.4116    98.4278 H6            1 RES     
   11317 H6        -158.9400   -34.2062    98.5536 H6            1 RES     
   11318 H6        -160.2825   -32.0552   100.3280 H6            1 RES     
   11319 H6        -160.4058   -33.8330   100.6266 H6            1 RES     
   11320 H6        -161.3944   -32.4196    98.0671 H6            1 RES     
   11321 H6        -161.5061   -34.1837    98.4475 H6            1 RES     
   11322 H6        -162.9007   -33.6457   100.4772 H6            1 RES     
   11323 H6        -162.8107   -31.8894   100.0564 H6            1 RES     
   11324 H6        -163.6534   -33.0421    98.9542 H6            1 RES     
   11325 H6        -153.6391   -32.7518   101.6380 H6            1 RES     
   11326 H6        -153.6141   -32.5577    99.8652 H6            1 RES     
   11327 H6        -155.2630   -30.7628   101.7629 H6            1 RES     
   11328 H6        -153.5868   -30.5826   101.1990 H6            1 RES     
   11329 H6        -154.3704   -30.6023    98.7744 H6            1 RES     
   11330 H6        -156.0364   -30.2857    99.3963 H6            1 RES     
   11331 H6        -155.0186   -28.1915   100.6004 H6            1 RES     
   11332 H6        -153.4447   -28.6742    99.9088 H6            1 RES     
   11333 H6        -154.4739   -28.4927    97.5725 H6            1 RES     
   11334 H6        -155.8652   -27.6625    98.3521 H6            1 RES     
   11335 H6        -154.1904   -26.0909    97.3785 H6            1 RES     
   11336 H6        -152.8600   -26.8605    98.3069 H6            1 RES     
   11337 H6        -153.8232   -26.0224   100.4445 H6            1 RES     
   11338 H6        -155.2014   -25.2709    99.5430 H6            1 RES     
   11339 H6        -153.5863   -23.8133    98.2939 H6            1 RES     
   11340 H6        -152.2044   -24.5758    99.1729 H6            1 RES     
   11341 H6        -153.4180   -23.5960   100.0744 H6            1 RES     
   11342 H6        -153.5059   -37.8464    98.7208 H6            1 RES     
   11343 H6        -153.9128   -36.2314    98.1639 H6            1 RES     
   11344 H6        -151.6816   -36.5142    97.9160 H6            1 RES     
   11345 H6        -151.9048   -34.4984   100.2436 H6            1 RES     
   11346 H6        -152.3733   -34.2641    98.4786 H6            1 RES     
   11347 H6        -149.5817   -34.4927    99.5978 H6            1 RES     
   11348 H6        -150.0778   -34.4474    97.8276 H6            1 RES     
   11349 H6        -149.2856   -32.3482    98.5146 H6            1 RES     
   11350 H6        -151.0575   -32.1414    98.2990 H6            1 RES     
   11351 H6        -149.6423   -32.6940   101.0081 H6            1 RES     
   11352 H6        -151.3371   -32.1377   100.8103 H6            1 RES     
   11353 H6        -148.7179   -30.6317   100.0601 H6            1 RES     
   11354 H6        -149.6789   -30.3612   101.5544 H6            1 RES     
   11355 H6        -150.1061   -28.6002    99.8795 H6            1 RES     
   11356 H6        -151.5708   -29.5667   100.2647 H6            1 RES     
   11357 H6        -150.7025   -29.8194    98.6935 H6            1 RES     
   11358 H6        -150.7116   -36.9385   100.8105 H6            1 RES     
   11359 H6        -151.0828   -38.2695    99.6501 H6            1 RES     
   11360 H6        -149.7028   -37.5426    97.9409 H6            1 RES     
   11361 H6        -148.9758   -36.2235    98.8153 H6            1 RES     
   11362 H6        -147.6390   -38.0679    98.3781 H6            1 RES     
   11363 H6        -148.4707   -39.1579    99.4978 H6            1 RES     
   11364 H6        -147.4831   -37.8741   101.4204 H6            1 RES     
   11365 H6        -147.1186   -36.4624   100.3579 H6            1 RES     
   11366 H6        -145.5412   -37.6807    98.9964 H6            1 RES     
   11367 H6        -145.7706   -39.2024    99.9361 H6            1 RES     
   11368 H6        -144.6645   -38.1798   101.8947 H6            1 RES     
   11369 H6        -144.5760   -36.5754   101.0622 H6            1 RES     
   11370 H6        -143.1621   -37.5141    99.2548 H6            1 RES     
   11371 H6        -143.2434   -39.1582    99.9893 H6            1 RES     
   11372 H6        -142.0131   -38.3432   101.9912 H6            1 RES     
   11373 H6        -141.9495   -36.6725   101.2847 H6            1 RES     
   11374 H6        -141.0970   -38.0350   100.4717 H6            1 RES     
   11375 C0        -162.6997   -37.5925    91.0404 C0            1 RES     
   11376 C1        -163.2888   -38.7670    91.4178 C1            1 RES     
   11377 C1        -163.9450   -38.6843    92.5922 C1            1 RES     
   11378 C1        -163.8137   -37.5123    93.1306 C1            1 RES     
   11379 C1        -162.9713   -36.6508    92.2827 C1            1 RES     
   11380 C1        -161.8599   -36.5082    93.3117 C1            1 RES     
   11381 C1        -162.1634   -36.8263    94.6039 C1            1 RES     
   11382 S2        -163.9320   -37.1982    94.8570 S2            1 RES     
   11383 C1        -161.1232   -36.9241    95.7123 C1            1 RES     
   11384 C1        -159.8214   -36.3629    95.5577 C1            1 RES     
   11385 N3        -158.8753   -36.4670    96.5356 N3            1 RES     
   11386 C1        -159.0933   -37.1199    97.6991 C1            1 RES     
   11387 C1        -160.3316   -37.7121    97.9135 C1            1 RES     
   11388 C1        -161.3557   -37.6099    96.9233 C1            1 RES     
   11389 N3        -162.5200   -38.2415    97.2443 N3            1 RES     
   11390 S2        -162.1948   -38.8749    98.7401 S2            1 RES     
   11391 N3        -160.6382   -38.4082    99.0353 N3            1 RES     
   11392 S2        -164.5607   -40.1469    93.1239 S2            1 RES     
   11393 C1        -163.9743   -40.9685    91.7644 C1            1 RES     
   11394 C1        -163.2620   -40.0882    90.9408 C1            1 RES     
   11395 C0        -163.3966   -37.1481    89.6652 C0            1 RES     
   11396 C0        -164.6249   -37.4719    88.6747 C0            1 RES     
   11397 C0        -164.7880   -38.9622    88.2390 C0            1 RES     
   11398 C0        -166.1768   -39.5068    88.6231 C0            1 RES     
   11399 C0        -166.3463   -41.0198    88.3960 C0            1 RES     
   11400 C0        -167.8002   -41.4245    88.7060 C0            1 RES     
   11401 C0        -168.0137   -42.9434    88.7009 C0            1 RES     
   11402 C0        -169.4803   -43.2810    88.9789 C0            1 RES     
   11403 C0        -164.3667   -36.5519    87.3997 C0            1 RES     
   11404 C0        -165.2398   -36.4637    86.1087 C0            1 RES     
   11405 C0        -165.0035   -37.5377    85.0028 C0            1 RES     
   11406 C0        -165.3266   -36.9781    83.5832 C0            1 RES     
   11407 C0        -165.0102   -37.9658    82.4410 C0            1 RES     
   11408 C0        -164.8349   -37.2960    81.0532 C0            1 RES     
   11409 C0        -166.0428   -36.4959    80.5443 C0            1 RES     
   11410 C0        -165.7626   -35.9224    79.1485 C0            1 RES     
   11411 C0        -161.1695   -37.7639    90.5907 C0            1 RES     
   11412 C0        -160.2124   -36.6463    89.8688 C0            1 RES     
   11413 C0        -160.7660   -36.1647    88.4679 C0            1 RES     
   11414 C0        -159.8487   -35.3833    87.5327 C0            1 RES     
   11415 C0        -160.4179   -35.1008    86.1307 C0            1 RES     
   11416 C0        -161.5290   -34.0305    86.1324 C0            1 RES     
   11417 C0        -161.7194   -33.3873    84.7468 C0            1 RES     
   11418 C0        -162.2598   -34.3409    83.6953 C0            1 RES     
   11419 C0        -159.5733   -35.4655    90.7325 C0            1 RES     
   11420 C0        -158.1422   -35.0678    90.2054 C0            1 RES     
   11421 C0        -157.1940   -34.0720    90.9285 C0            1 RES     
   11422 C0        -157.3174   -32.5436    90.6207 C0            1 RES     
   11423 C0        -155.8962   -31.9048    90.7048 C0            1 RES     
   11424 C0        -155.7753   -30.3941    90.4090 C0            1 RES     
   11425 C0        -154.2771   -30.0180    90.2879 C0            1 RES     
   11426 C0        -154.0369   -28.5273    90.0533 C0            1 RES     
   11427 H4        -160.8720   -36.2624    93.0221 H4            1 RES     
   11428 H5        -159.5549   -35.8183    94.6666 H5            1 RES     
   11429 H4        -162.7375   -40.4238    90.0603 H4            1 RES     
   11430 H6        -163.4624   -36.0457    89.7870 H6            1 RES     
   11431 H6        -162.6964   -37.4648    88.9188 H6            1 RES     
   11432 H6        -165.5676   -37.1272    89.1539 H6            1 RES     
   11433 H6        -164.6489   -39.0942    87.1511 H6            1 RES     
   11434 H6        -163.9901   -39.5714    88.6477 H6            1 RES     
   11435 H6        -166.3547   -39.3150    89.7042 H6            1 RES     
   11436 H6        -166.9362   -38.9510    88.0298 H6            1 RES     
   11437 H6        -166.1066   -41.2970    87.3457 H6            1 RES     
   11438 H6        -165.6484   -41.5574    89.0753 H6            1 RES     
   11439 H6        -168.4674   -40.9517    87.9509 H6            1 RES     
   11440 H6        -168.0810   -41.0470    89.7135 H6            1 RES     
   11441 H6        -167.7241   -43.3755    87.7192 H6            1 RES     
   11442 H6        -167.3848   -43.4028    89.4950 H6            1 RES     
   11443 H6        -169.8019   -42.8534    89.9532 H6            1 RES     
   11444 H6        -170.1287   -42.8708    88.1749 H6            1 RES     
   11445 H6        -169.6170   -44.3822    89.0159 H6            1 RES     
   11446 H6        -164.3712   -35.5169    87.8067 H6            1 RES     
   11447 H6        -163.3386   -36.7377    87.0165 H6            1 RES     
   11448 H6        -166.3159   -36.3005    86.3192 H6            1 RES     
   11449 H6        -164.8654   -35.5216    85.6488 H6            1 RES     
   11450 H6        -163.9196   -37.7919    84.9827 H6            1 RES     
   11451 H6        -165.5817   -38.4602    85.2134 H6            1 RES     
   11452 H6        -166.3807   -36.6373    83.5076 H6            1 RES     
   11453 H6        -164.6790   -36.1030    83.4231 H6            1 RES     
   11454 H6        -164.0331   -38.4550    82.6475 H6            1 RES     
   11455 H6        -165.7892   -38.7569    82.4081 H6            1 RES     
   11456 H6        -164.6017   -38.0963    80.3162 H6            1 RES     
   11457 H6        -163.9574   -36.6125    81.0956 H6            1 RES     
   11458 H6        -166.2496   -35.6507    81.2343 H6            1 RES     
   11459 H6        -166.9373   -37.1505    80.4896 H6            1 RES     
   11460 H6        -165.5804   -36.7416    78.4195 H6            1 RES     
   11461 H6        -164.8724   -35.2566    79.1659 H6            1 RES     
   11462 H6        -166.6344   -35.3302    78.7975 H6            1 RES     
   11463 H6        -160.6114   -38.1408    91.4758 H6            1 RES     
   11464 H6        -161.1498   -38.6160    89.8733 H6            1 RES     
   11465 H6        -159.3346   -37.2867    89.6344 H6            1 RES     
   11466 H6        -161.6605   -35.5307    88.6160 H6            1 RES     
   11467 H6        -160.9924   -37.0819    87.8831 H6            1 RES     
   11468 H6        -159.6435   -34.3852    87.9581 H6            1 RES     
   11469 H6        -158.9218   -35.9827    87.4027 H6            1 RES     
   11470 H6        -159.5633   -34.6832    85.5572 H6            1 RES     
   11471 H6        -160.7456   -36.0348    85.6221 H6            1 RES     
   11472 H6        -161.2135   -33.1973    86.7955 H6            1 RES     
   11473 H6        -162.4817   -34.4392    86.5302 H6            1 RES     
   11474 H6        -160.7469   -32.9753    84.3997 H6            1 RES     
   11475 H6        -162.4341   -32.5412    84.8406 H6            1 RES     
   11476 H6        -162.3553   -33.8083    82.7247 H6            1 RES     
   11477 H6        -163.2586   -34.6670    84.0188 H6            1 RES     
   11478 H6        -161.5956   -35.2177    83.5524 H6            1 RES     
   11479 H6        -160.2745   -34.6085    90.8358 H6            1 RES     
   11480 H6        -159.3318   -35.8581    91.7335 H6            1 RES     
   11481 H6        -157.5878   -36.0309    90.2226 H6            1 RES     
   11482 H6        -158.1022   -34.7407    89.1719 H6            1 RES     
   11483 H6        -156.2199   -34.3597    90.4726 H6            1 RES     
   11484 H6        -157.0855   -34.2735    92.0143 H6            1 RES     
   11485 H6        -158.0473   -32.0613    91.3066 H6            1 RES     
   11486 H6        -157.6619   -32.3892    89.5749 H6            1 RES     
   11487 H6        -155.2758   -32.4218    89.9380 H6            1 RES     
   11488 H6        -155.4510   -32.1018    91.7038 H6            1 RES     
   11489 H6        -156.2557   -29.8148    91.2268 H6            1 RES     
   11490 H6        -156.2752   -30.1454    89.4477 H6            1 RES     
   11491 H6        -153.8332   -30.5734    89.4310 H6            1 RES     
   11492 H6        -153.7339   -30.3126    91.2118 H6            1 RES     
   11493 H6        -154.4018   -27.9350    90.9178 H6            1 RES     
   11494 H6        -154.5404   -28.1848    89.1254 H6            1 RES     
   11495 H6        -152.9439   -28.3456    89.9437 H6            1 RES     
   11496 C0        -162.4217   -49.9292    90.3210 C0            1 RES     
   11497 C1        -162.6316   -50.2145    91.6413 C1            1 RES     
   11498 C1        -163.8405   -49.8212    92.0890 C1            1 RES     
   11499 C1        -164.5109   -49.2003    91.1695 C1            1 RES     
   11500 C1        -163.7201   -49.1141    89.9293 C1            1 RES     
   11501 C1        -163.6269   -47.5958    89.9437 C1            1 RES     
   11502 C1        -164.5137   -46.9251    90.7354 C1            1 RES     
   11503 S2        -165.7676   -48.0132    91.4932 S2            1 RES     
   11504 C1        -164.4302   -45.4295    91.0116 C1            1 RES     
   11505 C1        -163.6327   -44.5700    90.2000 C1            1 RES     
   11506 N3        -163.5326   -43.2331    90.4548 N3            1 RES     
   11507 C1        -164.1574   -42.6370    91.4949 C1            1 RES     
   11508 C1        -164.9358   -43.4139    92.3438 C1            1 RES     
   11509 C1        -165.0821   -44.8137    92.1010 C1            1 RES     
   11510 N3        -165.8596   -45.4685    93.0089 N3            1 RES     
   11511 S2        -166.3156   -44.2580    94.0439 S2            1 RES     
   11512 N3        -165.5809   -42.9141    93.4259 N3            1 RES     
   11513 S2        -164.0574   -50.0512    93.7326 S2            1 RES     
   11514 C1        -162.5113   -50.7172    93.9150 C1            1 RES     
   11515 C1        -161.8333   -50.7013    92.6900 C1            1 RES     
   11516 C0        -162.2296   -51.3342    89.5704 C0            1 RES     
   11517 C0        -162.3614   -52.9286    89.7577 C0            1 RES     
   11518 C0        -161.6587   -53.5383    91.0116 C0            1 RES     
   11519 C0        -162.6638   -54.2924    91.9026 C0            1 RES     
   11520 C0        -162.0851   -54.7609    93.2499 C0            1 RES     
   11521 C0        -163.1419   -55.5951    93.9989 C0            1 RES     
   11522 C0        -162.7279   -55.9366    95.4358 C0            1 RES     
   11523 C0        -163.7986   -56.7941    96.1143 C0            1 RES     
   11524 C0        -161.7386   -53.5430    88.4260 C0            1 RES     
   11525 C0        -161.5899   -55.0544    88.0650 C0            1 RES     
   11526 C0        -160.3509   -55.8132    88.6319 C0            1 RES     
   11527 C0        -159.9128   -56.9772    87.6906 C0            1 RES     
   11528 C0        -158.6274   -57.6958    88.1505 C0            1 RES     
   11529 C0        -157.9012   -58.4791    87.0260 C0            1 RES     
   11530 C0        -158.7284   -59.5756    86.3392 C0            1 RES     
   11531 C0        -157.8885   -60.3041    85.2812 C0            1 RES     
   11532 C0        -161.0136   -49.2138    90.0407 C0            1 RES     
   11533 C0        -160.3143   -48.9267    88.5864 C0            1 RES     
   11534 C0        -160.0200   -50.2464    87.7662 C0            1 RES     
   11535 C0        -159.0940   -50.1808    86.5559 C0            1 RES     
   11536 C0        -158.7364   -51.5370    85.9216 C0            1 RES     
   11537 C0        -159.9086   -52.1692    85.1427 C0            1 RES     
   11538 C0        -159.4295   -53.2068    84.1114 C0            1 RES     
   11539 C0        -158.8110   -54.4484    84.7302 C0            1 RES     
   11540 C0        -160.8325   -47.7222    87.6757 C0            1 RES     
   11541 C0        -159.6561   -47.0591    86.8632 C0            1 RES     
   11542 C0        -159.8040   -45.7644    86.0173 C0            1 RES     
   11543 C0        -160.2651   -45.8773    84.5272 C0            1 RES     
   11544 C0        -159.5591   -44.7556    83.7036 C0            1 RES     
   11545 C0        -159.8503   -44.6934    82.1885 C0            1 RES     
   11546 C0        -158.8679   -43.6976    81.5222 C0            1 RES     
   11547 C0        -159.1059   -43.5119    80.0244 C0            1 RES     
   11548 H4        -162.8497   -47.0887    89.4346 H4            1 RES     
   11549 H5        -163.1011   -44.9522    89.3438 H5            1 RES     
   11550 H4        -160.8033   -51.0081    92.6002 H4            1 RES     
   11551 H6        -162.7567   -51.1547    88.6089 H6            1 RES     
   11552 H6        -161.1660   -51.4218    89.4765 H6            1 RES     
   11553 H6        -163.4409   -53.1954    89.7794 H6            1 RES     
   11554 H6        -160.8459   -54.2335    90.7349 H6            1 RES     
   11555 H6        -161.1270   -52.7725    91.5644 H6            1 RES     
   11556 H6        -163.5215   -53.6214    92.1291 H6            1 RES     
   11557 H6        -163.0357   -55.1698    91.3287 H6            1 RES     
   11558 H6        -161.1716   -55.3779    93.1012 H6            1 RES     
   11559 H6        -161.8157   -53.8624    93.8479 H6            1 RES     
   11560 H6        -163.3196   -56.5346    93.4288 H6            1 RES     
   11561 H6        -164.0949   -55.0244    94.0482 H6            1 RES     
   11562 H6        -161.7644   -56.4898    95.4439 H6            1 RES     
   11563 H6        -162.6058   -54.9943    96.0138 H6            1 RES     
   11564 H6        -164.7782   -56.2688    96.1137 H6            1 RES     
   11565 H6        -163.9101   -57.7631    95.5817 H6            1 RES     
   11566 H6        -163.5107   -57.0001    97.1666 H6            1 RES     
   11567 H6        -162.3729   -53.1265    87.6129 H6            1 RES     
   11568 H6        -160.7168   -53.1289    88.2750 H6            1 RES     
   11569 H6        -162.5311   -55.6274    88.1867 H6            1 RES     
   11570 H6        -161.3938   -55.0051    86.9704 H6            1 RES     
   11571 H6        -159.4874   -55.1107    88.6577 H6            1 RES     
   11572 H6        -160.5438   -56.1783    89.6610 H6            1 RES     
   11573 H6        -160.7288   -57.7165    87.5466 H6            1 RES     
   11574 H6        -159.6849   -56.5343    86.7094 H6            1 RES     
   11575 H6        -157.8908   -56.9351    88.4902 H6            1 RES     
   11576 H6        -158.8599   -58.3565    89.0125 H6            1 RES     
   11577 H6        -156.9914   -58.9431    87.4675 H6            1 RES     
   11578 H6        -157.5660   -57.7570    86.2480 H6            1 RES     
   11579 H6        -159.6075   -59.1212    85.8354 H6            1 RES     
   11580 H6        -159.0785   -60.3144    87.0896 H6            1 RES     
   11581 H6        -157.0123   -60.8000    85.7524 H6            1 RES     
   11582 H6        -157.5226   -59.5934    84.5086 H6            1 RES     
   11583 H6        -158.5009   -61.0820    84.7776 H6            1 RES     
   11584 H6        -161.0271   -48.2453    90.5870 H6            1 RES     
   11585 H6        -160.2459   -49.8179    90.5763 H6            1 RES     
   11586 H6        -159.3211   -48.5675    88.9329 H6            1 RES     
   11587 H6        -160.9697   -50.6794    87.3990 H6            1 RES     
   11588 H6        -159.4816   -50.9342    88.4527 H6            1 RES     
   11589 H6        -159.5793   -49.6110    85.7441 H6            1 RES     
   11590 H6        -158.1455   -49.7082    86.8913 H6            1 RES     
   11591 H6        -157.9418   -51.3027    85.1819 H6            1 RES     
   11592 H6        -158.3093   -52.2426    86.6686 H6            1 RES     
   11593 H6        -160.4019   -51.3746    84.5437 H6            1 RES     
   11594 H6        -160.6675   -52.5952    85.8323 H6            1 RES     
   11595 H6        -158.6891   -52.7305    83.4325 H6            1 RES     
   11596 H6        -160.2984   -53.5277    83.4970 H6            1 RES     
   11597 H6        -158.4791   -55.1388    83.9252 H6            1 RES     
   11598 H6        -159.5870   -54.9488    85.3268 H6            1 RES     
   11599 H6        -157.9359   -54.2011    85.3654 H6            1 RES     
   11600 H6        -161.7018   -48.0256    87.0520 H6            1 RES     
   11601 H6        -161.1326   -46.8918    88.3351 H6            1 RES     
   11602 H6        -158.9241   -46.7846    87.6530 H6            1 RES     
   11603 H6        -159.1152   -47.7265    86.2007 H6            1 RES     
   11604 H6        -158.7377   -45.4522    85.9454 H6            1 RES     
   11605 H6        -160.3194   -44.9415    86.5545 H6            1 RES     
   11606 H6        -161.3734   -45.8327    84.4533 H6            1 RES     
   11607 H6        -159.9217   -46.8407    84.0910 H6            1 RES     
   11608 H6        -158.4648   -44.9379    83.8020 H6            1 RES     
   11609 H6        -159.7877   -43.7614    84.1442 H6            1 RES     
   11610 H6        -160.9009   -44.3703    82.0241 H6            1 RES     
   11611 H6        -159.7021   -45.6921    81.7232 H6            1 RES     
   11612 H6        -157.8276   -44.0708    81.6580 H6            1 RES     
   11613 H6        -158.9460   -42.7014    82.0090 H6            1 RES     
   11614 H6        -160.1092   -43.0741    79.8425 H6            1 RES     
   11615 H6        -159.0153   -44.4776    79.4848 H6            1 RES     
   11616 H6        -158.3419   -42.8122    79.6164 H6            1 RES     
   11617 C0        -157.2374   -51.7955   101.3857 C0            1 RES     
   11618 C1        -158.0881   -51.0360   102.1395 C1            1 RES     
   11619 C1        -159.3524   -51.5030   102.1550 C1            1 RES     
   11620 C1        -159.4862   -52.5431   101.3929 C1            1 RES     
   11621 C1        -158.2052   -52.8692   100.7422 C1            1 RES     
   11622 C1        -158.7087   -52.6043    99.3313 C1            1 RES     
   11623 C1        -160.0610   -52.5690    99.1493 C1            1 RES     
   11624 S2        -161.0005   -53.0320   100.6438 S2            1 RES     
   11625 C1        -160.7235   -52.1272    97.8509 C1            1 RES     
   11626 C1        -159.9856   -52.0466    96.6332 C1            1 RES     
   11627 N3        -160.5648   -51.6285    95.4705 N3            1 RES     
   11628 C1        -161.8588   -51.2447    95.3936 C1            1 RES     
   11629 C1        -162.6366   -51.2752    96.5443 C1            1 RES     
   11630 C1        -162.0738   -51.7246    97.7776 C1            1 RES     
   11631 N3        -162.9321   -51.6973    98.8359 N3            1 RES     
   11632 S2        -164.3316   -51.1235    98.1600 S2            1 RES     
   11633 N3        -163.9349   -50.8877    96.5742 N3            1 RES     
   11634 S2        -160.4266   -50.5112   102.9697 S2            1 RES     
   11635 C1        -159.2124   -49.3967   103.3584 C1            1 RES     
   11636 C1        -157.9936   -49.7987   102.7985 C1            1 RES     
   11637 C0        -156.1249   -52.3734   102.3872 C0            1 RES     
   11638 C0        -155.7440   -52.5308   103.9443 C0            1 RES     
   11639 C0        -155.7967   -51.2289   104.8045 C0            1 RES     
   11640 C0        -156.7671   -51.3832   105.9908 C0            1 RES     
   11641 C0        -157.0159   -50.0828   106.7760 C0            1 RES     
   11642 C0        -157.9058   -50.3839   107.9970 C0            1 RES     
   11643 C0        -158.3713   -49.1175   108.7264 C0            1 RES     
   11644 C0        -159.2193   -49.4814   109.9474 C0            1 RES     
   11645 C0        -154.2660   -53.1259   103.9386 C0            1 RES     
   11646 C0        -153.3834   -53.4696   105.1795 C0            1 RES     
   11647 C0        -152.5853   -52.3052   105.8423 C0            1 RES     
   11648 C0        -151.2730   -52.8188   106.5108 C0            1 RES     
   11649 C0        -150.3917   -51.6933   107.0913 C0            1 RES     
   11650 C0        -148.9061   -52.0906   107.2930 C0            1 RES     
   11651 C0        -148.6588   -53.2885   108.2214 C0            1 RES     
   11652 C0        -147.1547   -53.5530   108.3743 C0            1 RES     
   11653 C0        -156.3453   -50.9327   100.3693 C0            1 RES     
   11654 C0        -155.0712   -51.4493    99.4771 C0            1 RES     
   11655 C0        -153.8762   -51.9955   100.3572 C0            1 RES     
   11656 C0        -152.5114   -52.2094    99.7105 C0            1 RES     
   11657 C0        -151.3726   -52.5841   100.6760 C0            1 RES     
   11658 C0        -151.4812   -54.0277   101.2095 C0            1 RES     
   11659 C0        -150.1316   -54.5612   101.7232 C0            1 RES     
   11660 C0        -149.6209   -53.8488   102.9637 C0            1 RES     
   11661 C0        -155.3192   -52.3049    98.1523 C0            1 RES     
   11662 C0        -154.2436   -51.9877    97.0449 C0            1 RES     
   11663 C0        -154.3059   -52.5300    95.5903 C0            1 RES     
   11664 C0        -153.6731   -53.9238    95.2699 C0            1 RES     
   11665 C0        -153.0885   -53.8820    93.8237 C0            1 RES     
   11666 C0        -152.3862   -55.1543    93.3020 C0            1 RES     
   11667 C0        -151.6585   -54.8253    91.9742 C0            1 RES     
   11668 C0        -150.9752   -56.0331    91.3347 C0            1 RES     
   11669 H4        -158.0406   -52.3664    98.5456 H4            1 RES     
   11670 H5        -158.9484   -52.3370    96.5934 H5            1 RES     
   11671 H4        -157.1057   -49.1897   102.8590 H4            1 RES     
   11672 H6        -155.9701   -53.3997   101.9907 H6            1 RES     
   11673 H6        -155.2918   -51.7165   102.2381 H6            1 RES     
   11674 H6        -156.4133   -53.2945   104.3980 H6            1 RES     
   11675 H6        -154.8028   -50.9516   105.1991 H6            1 RES     
   11676 H6        -156.0464   -50.3720   104.1896 H6            1 RES     
   11677 H6        -157.7527   -51.7303   105.6096 H6            1 RES     
   11678 H6        -156.3517   -52.1588   106.6716 H6            1 RES     
   11679 H6        -156.0589   -49.6349   107.1237 H6            1 RES     
   11680 H6        -157.5255   -49.3582   106.1030 H6            1 RES     
   11681 H6        -157.3342   -51.0304   108.7002 H6            1 RES     
   11682 H6        -158.8124   -50.9356   107.6653 H6            1 RES     
   11683 H6        -157.4991   -48.5155   109.0598 H6            1 RES     
   11684 H6        -158.9879   -48.5035   108.0337 H6            1 RES     
   11685 H6        -160.0972   -50.0928   109.6454 H6            1 RES     
   11686 H6        -158.6134   -50.0592   110.6783 H6            1 RES     
   11687 H6        -159.5872   -48.5590   110.4439 H6            1 RES     
   11688 H6        -154.3643   -54.0909   103.3945 H6            1 RES     
   11689 H6        -153.6121   -52.4757   103.3157 H6            1 RES     
   11690 H6        -153.9044   -54.1050   105.9238 H6            1 RES     
   11691 H6        -152.5936   -54.1076   104.7230 H6            1 RES     
   11692 H6        -152.2568   -51.6022   105.0437 H6            1 RES     
   11693 H6        -153.2163   -51.7514   106.5667 H6            1 RES     
   11694 H6        -151.4823   -53.5776   107.2940 H6            1 RES     
   11695 H6        -150.6756   -53.3045   105.7246 H6            1 RES     
   11696 H6        -150.3656   -50.8473   106.3701 H6            1 RES     
   11697 H6        -150.8389   -51.3229   108.0381 H6            1 RES     
   11698 H6        -148.3699   -51.2060   107.7024 H6            1 RES     
   11699 H6        -148.4613   -52.3227   106.2993 H6            1 RES     
   11700 H6        -149.1319   -54.1977   107.7938 H6            1 RES     
   11701 H6        -149.0910   -53.0886   109.2238 H6            1 RES     
   11702 H6        -146.6484   -52.6744   108.8296 H6            1 RES     
   11703 H6        -146.6876   -53.7614   107.3872 H6            1 RES     
   11704 H6        -146.9871   -54.4322   109.0321 H6            1 RES     
   11705 H6        -157.0468   -50.4317    99.6667 H6            1 RES     
   11706 H6        -155.9144   -50.0967   100.9664 H6            1 RES     
   11707 H6        -154.7220   -50.4714    99.0804 H6            1 RES     
   11708 H6        -154.1550   -52.9673   100.8068 H6            1 RES     
   11709 H6        -153.6671   -51.2208   101.1257 H6            1 RES     
   11710 H6        -152.5630   -53.0514    98.9980 H6            1 RES     
   11711 H6        -152.2284   -51.2561    99.2138 H6            1 RES     
   11712 H6        -150.4503   -52.5326   100.0595 H6            1 RES     
   11713 H6        -151.2719   -51.8455   101.5023 H6            1 RES     
   11714 H6        -151.7516   -54.6954   100.3643 H6            1 RES     
   11715 H6        -152.2771   -54.1142   101.9789 H6            1 RES     
   11716 H6        -149.3737   -54.4735   100.9146 H6            1 RES     
   11717 H6        -150.2439   -55.6392   101.9699 H6            1 RES     
   11718 H6        -148.6410   -54.2794   103.2624 H6            1 RES     
   11719 H6        -150.3443   -54.0228   103.7729 H6            1 RES     
   11720 H6        -149.4899   -52.7610   102.7908 H6            1 RES     
   11721 H6        -155.4325   -53.3875    98.3798 H6            1 RES     
   11722 H6        -156.2393   -51.9385    97.6689 H6            1 RES     
   11723 H6        -154.3175   -50.8852    96.9265 H6            1 RES     
   11724 H6        -153.2135   -52.1695    97.3324 H6            1 RES     
   11725 H6        -153.6318   -51.8055    95.0801 H6            1 RES     
   11726 H6        -155.2987   -52.4004    95.1120 H6            1 RES     
   11727 H6        -154.4187   -54.7364    95.4094 H6            1 RES     
   11728 H6        -152.8105   -54.1179    95.9441 H6            1 RES     
   11729 H6        -152.3170   -53.0789    93.8220 H6            1 RES     
   11730 H6        -153.8849   -53.6015    93.1013 H6            1 RES     
   11731 H6        -153.1387   -55.9567    93.1432 H6            1 RES     
   11732 H6        -151.6291   -55.5084    94.0350 H6            1 RES     
   11733 H6        -150.8772   -54.0568    92.1712 H6            1 RES     
   11734 H6        -152.3788   -54.4078    91.2378 H6            1 RES     
   11735 H6        -151.7262   -56.8009    91.0556 H6            1 RES     
   11736 H6        -150.2250   -56.4758    92.0225 H6            1 RES     
   11737 H6        -150.4493   -55.7082    90.4086 H6            1 RES     
   11738 C0        -159.7088   -40.5687   105.9289 C0            1 RES     
   11739 C1        -161.0454   -40.5245   105.6454 C1            1 RES     
   11740 C1        -161.7661   -41.4453   106.3158 C1            1 RES     
   11741 C1        -161.0090   -42.2108   107.0377 C1            1 RES     
   11742 C1        -159.5947   -41.8301   106.8774 C1            1 RES     
   11743 C1        -159.1794   -43.1495   106.2440 C1            1 RES     
   11744 C1        -160.0258   -44.2088   106.4004 C1            1 RES     
   11745 S2        -161.4276   -43.8515   107.5129 S2            1 RES     
   11746 C1        -159.8557   -45.5357   105.6722 C1            1 RES     
   11747 C1        -158.6235   -45.8830   105.0440 C1            1 RES     
   11748 N3        -158.4697   -47.0587   104.3685 N3            1 RES     
   11749 C1        -159.4683   -47.9592   104.2291 C1            1 RES     
   11750 C1        -160.7059   -47.6809   104.7956 C1            1 RES     
   11751 C1        -160.9029   -46.4702   105.5271 C1            1 RES     
   11752 N3        -162.1615   -46.3060   106.0236 N3            1 RES     
   11753 S2        -162.9367   -47.6822   105.5238 S2            1 RES     
   11754 N3        -161.7744   -48.5079   104.6901 N3            1 RES     
   11755 S2        -163.3819   -41.4829   105.8807 S2            1 RES     
   11756 C1        -163.1826   -40.2277   104.7617 C1            1 RES     
   11757 C1        -161.8395   -39.8349   104.7139 C1            1 RES     
   11758 C0        -159.3322   -39.1595   106.5974 C0            1 RES     
   11759 C0        -159.9624   -37.8072   107.2046 C0            1 RES     
   11760 C0        -161.0066   -37.0680   106.3097 C0            1 RES     
   11761 C0        -162.3550   -36.9129   107.0382 C0            1 RES     
   11762 C0        -163.4896   -36.3626   106.1554 C0            1 RES     
   11763 C0        -164.7489   -36.1456   107.0160 C0            1 RES     
   11764 C0        -165.9883   -35.7891   106.1857 C0            1 RES     
   11765 C0        -167.1951   -35.5509   107.0964 C0            1 RES     
   11766 C0        -158.7067   -36.8649   107.4762 C0            1 RES     
   11767 C0        -158.7239   -35.4147   108.0536 C0            1 RES     
   11768 C0        -159.0017   -34.2454   107.0597 C0            1 RES     
   11769 C0        -158.3051   -32.9272   107.5177 C0            1 RES     
   11770 C0        -158.4601   -31.7639   106.5162 C0            1 RES     
   11771 C0        -157.3991   -30.6440   106.6751 C0            1 RES     
   11772 C0        -157.3538   -29.9621   108.0503 C0            1 RES     
   11773 C0        -156.2989   -28.8473   108.0668 C0            1 RES     
   11774 C0        -158.7806   -40.5682   104.6207 C0            1 RES     
   11775 C0        -157.1528   -40.3881   104.5544 C0            1 RES     
   11776 C0        -156.6558   -39.0043   105.1367 C0            1 RES     
   11777 C0        -155.2269   -38.5489   104.8588 C0            1 RES     
   11778 C0        -154.8848   -37.1216   105.3229 C0            1 RES     
   11779 C0        -154.7553   -36.9977   106.8553 C0            1 RES     
   11780 C0        -153.9304   -35.7664   107.2718 C0            1 RES     
   11781 C0        -154.5966   -34.4410   106.9454 C0            1 RES     
   11782 C0        -156.1986   -41.6101   104.9350 C0            1 RES     
   11783 C0        -154.8851   -41.6159   104.0640 C0            1 RES     
   11784 C0        -153.8371   -42.7627   104.0771 C0            1 RES     
   11785 C0        -152.6845   -42.7284   105.1337 C0            1 RES     
   11786 C0        -151.4049   -43.3492   104.4916 C0            1 RES     
   11787 C0        -150.1252   -43.3951   105.3544 C0            1 RES     
   11788 C0        -148.9242   -43.7967   104.4617 C0            1 RES     
   11789 C0        -147.6093   -43.9314   105.2283 C0            1 RES     
   11790 H4        -158.3187   -43.2176   105.6318 H4            1 RES     
   11791 H5        -157.7672   -45.2312   105.1052 H5            1 RES     
   11792 H4        -161.4807   -39.1021   104.0087 H4            1 RES     
   11793 H6        -158.6026   -39.4636   107.3781 H6            1 RES     
   11794 H6        -158.9009   -38.6079   105.7865 H6            1 RES     
   11795 H6        -160.4266   -38.0422   108.1876 H6            1 RES     
   11796 H6        -160.6562   -36.0656   106.0047 H6            1 RES     
   11797 H6        -161.1201   -37.5709   105.3564 H6            1 RES     
   11798 H6        -162.6820   -37.9087   107.4105 H6            1 RES     
   11799 H6        -162.1960   -36.2383   107.9083 H6            1 RES     
   11800 H6        -163.1992   -35.3978   105.6841 H6            1 RES     
   11801 H6        -163.7004   -37.1030   105.3523 H6            1 RES     
   11802 H6        -164.5421   -35.3310   107.7459 H6            1 RES     
   11803 H6        -164.9756   -37.0772   107.5790 H6            1 RES     
   11804 H6        -165.8051   -34.8737   105.5834 H6            1 RES     
   11805 H6        -166.2209   -36.6313   105.4976 H6            1 RES     
   11806 H6        -167.3979   -36.4491   107.7192 H6            1 RES     
   11807 H6        -167.0067   -34.6844   107.7662 H6            1 RES     
   11808 H6        -168.0966   -35.3359   106.4851 H6            1 RES     
   11809 H6        -158.0861   -37.4412   108.1970 H6            1 RES     
   11810 H6        -158.1077   -36.7753   106.5426 H6            1 RES     
   11811 H6        -159.3098   -35.3242   108.9903 H6            1 RES     
   11812 H6        -157.6569   -35.2740   108.3382 H6            1 RES     
   11813 H6        -158.5419   -34.4991   106.0778 H6            1 RES     
   11814 H6        -160.0910   -34.0960   106.9148 H6            1 RES     
   11815 H6        -158.6517   -32.6091   108.5236 H6            1 RES     
   11816 H6        -157.2267   -33.1352   107.5850 H6            1 RES     
   11817 H6        -158.3118   -32.1536   105.4852 H6            1 RES     
   11818 H6        -159.4896   -31.3523   106.5821 H6            1 RES     
   11819 H6        -157.6016   -29.8711   105.9008 H6            1 RES     
   11820 H6        -156.3936   -31.0734   106.4660 H6            1 RES     
   11821 H6        -157.0869   -30.7073   108.8292 H6            1 RES     
   11822 H6        -158.3439   -29.5217   108.2896 H6            1 RES     
   11823 H6        -156.5481   -28.0633   107.3193 H6            1 RES     
   11824 H6        -155.2905   -29.2537   107.8341 H6            1 RES     
   11825 H6        -156.2608   -28.3733   109.0706 H6            1 RES     
   11826 H6        -159.0249   -41.4903   104.0490 H6            1 RES     
   11827 H6        -159.1537   -39.7406   103.9750 H6            1 RES     
   11828 H6        -157.0262   -40.3069   103.4531 H6            1 RES     
   11829 H6        -156.7680   -38.9986   106.2375 H6            1 RES     
   11830 H6        -157.2665   -38.2156   104.6474 H6            1 RES     
   11831 H6        -154.5157   -39.1975   105.4001 H6            1 RES     
   11832 H6        -155.0762   -38.5877   103.7583 H6            1 RES     
   11833 H6        -153.8814   -36.9171   104.8930 H6            1 RES     
   11834 H6        -155.5932   -36.3711   104.9067 H6            1 RES     
   11835 H6        -154.1800   -37.8701   107.2312 H6            1 RES     
   11836 H6        -155.7512   -37.0104   107.3462 H6            1 RES     
   11837 H6        -152.9375   -35.8077   106.7735 H6            1 RES     
   11838 H6        -153.7626   -35.8034   108.3699 H6            1 RES     
   11839 H6        -153.9362   -33.6053   107.2622 H6            1 RES     
   11840 H6        -155.5340   -34.3862   107.5170 H6            1 RES     
   11841 H6        -154.8003   -34.3373   105.8600 H6            1 RES     
   11842 H6        -156.0180   -41.6621   106.0311 H6            1 RES     
   11843 H6        -156.6803   -42.5440   104.6031 H6            1 RES     
   11844 H6        -155.2707   -41.6131   103.0217 H6            1 RES     
   11845 H6        -154.2744   -40.7224   104.1385 H6            1 RES     
   11846 H6        -153.3204   -42.5696   103.1100 H6            1 RES     
   11847 H6        -154.2855   -43.7729   103.9785 H6            1 RES     
   11848 H6        -152.9914   -43.2460   106.0684 H6            1 RES     
   11849 H6        -152.4235   -41.6768   105.3830 H6            1 RES     
   11850 H6        -151.1609   -42.7168   103.6080 H6            1 RES     
   11851 H6        -151.6221   -44.3787   104.1339 H6            1 RES     
   11852 H6        -150.2579   -44.1285   106.1788 H6            1 RES     
   11853 H6        -149.9150   -42.3945   105.7908 H6            1 RES     
   11854 H6        -148.7824   -43.0204   103.6761 H6            1 RES     
   11855 H6        -149.1300   -44.7663   103.9589 H6            1 RES     
   11856 H6        -147.6799   -44.7452   105.9794 H6            1 RES     
   11857 H6        -147.3435   -42.9789   105.7321 H6            1 RES     
   11858 H6        -146.7940   -44.1869   104.5143 H6            1 RES     
   11859 C0        -168.3604   -37.6338    97.6028 C0            1 RES     
   11860 C1        -169.1369   -38.7534    97.7134 C1            1 RES     
   11861 C1        -169.7119   -38.8893    98.9248 C1            1 RES     
   11862 C1        -169.3431   -37.9481    99.7363 C1            1 RES     
   11863 C1        -168.3969   -37.0376    99.0681 C1            1 RES     
   11864 C1        -167.2320   -37.3671    99.9893 C1            1 RES     
   11865 C1        -167.5287   -37.9732   101.1758 C1            1 RES     
   11866 S2        -169.3219   -38.1045   101.4879 S2            1 RES     
   11867 C1        -166.4742   -38.5406   102.1170 C1            1 RES     
   11868 C1        -165.1000   -38.1802   101.9930 C1            1 RES     
   11869 N3        -164.1450   -38.7023   102.8161 N3            1 RES     
   11870 C1        -164.4252   -39.6043   103.7833 C1            1 RES     
   11871 C1        -165.7399   -40.0209   103.9508 C1            1 RES     
   11872 C1        -166.7724   -39.4844   103.1226 C1            1 RES     
   11873 N3        -168.0168   -39.9796   103.3752 N3            1 RES     
   11874 S2        -167.7446   -41.0435   104.6156 S2            1 RES     
   11875 N3        -166.1169   -40.9378   104.8749 N3            1 RES     
   11876 S2        -170.5604   -40.3200    99.1106 S2            1 RES     
   11877 C1        -170.1981   -40.8219    97.5345 C1            1 RES     
   11878 C1        -169.3751   -39.8789    96.9069 C1            1 RES     
   11879 C0        -169.0266   -36.7210    96.4637 C0            1 RES     
   11880 C0        -170.3378   -36.5545    95.5431 C0            1 RES     
   11881 C0        -170.7915   -37.8204    94.7499 C0            1 RES     
   11882 C0        -172.2375   -38.2137    95.1069 C0            1 RES     
   11883 C0        -172.6921   -39.5572    94.5087 C0            1 RES     
   11884 C0        -174.1797   -39.7870    94.8373 C0            1 RES     
   11885 C0        -174.6683   -41.1897    94.4550 C0            1 RES     
   11886 C0        -176.1576   -41.3450    94.7715 C0            1 RES     
   11887 C0        -169.9743   -35.3755    94.5349 C0            1 RES     
   11888 C0        -170.8750   -34.7945    93.4000 C0            1 RES     
   11889 C0        -170.8911   -35.5477    92.0344 C0            1 RES     
   11890 C0        -171.1712   -34.5751    90.8477 C0            1 RES     
   11891 C0        -171.0945   -35.2496    89.4623 C0            1 RES     
   11892 C0        -170.8635   -34.2631    88.2880 C0            1 RES     
   11893 C0        -171.9262   -33.1671    88.1223 C0            1 RES     
   11894 C0        -171.6102   -32.2869    86.9052 C0            1 RES     
   11895 C0        -166.9100   -37.9241    96.9821 C0            1 RES     
   11896 C0        -165.7984   -36.8243    96.4912 C0            1 RES     
   11897 C0        -166.3183   -35.8929    95.3236 C0            1 RES     
   11898 C0        -165.3174   -35.0466    94.5436 C0            1 RES     
   11899 C0        -165.8891   -34.3010    93.3243 C0            1 RES     
   11900 C0        -166.7836   -33.1048    93.7106 C0            1 RES     
   11901 C0        -166.9165   -32.0841    92.5659 C0            1 RES     
   11902 C0        -167.6707   -32.6106    91.3571 C0            1 RES     
   11903 C0        -164.9143   -36.0472    97.5696 C0            1 RES     
   11904 C0        -163.4604   -35.7609    97.0329 C0            1 RES     
   11905 C0        -162.3132   -35.1713    97.8989 C0            1 RES     
   11906 C0        -162.1681   -33.6184    98.0149 C0            1 RES     
   11907 C0        -160.6514   -33.2695    98.1292 C0            1 RES     
   11908 C0        -160.2692   -31.7769    98.2290 C0            1 RES     
   11909 C0        -158.7346   -31.6333    98.0703 C0            1 RES     
   11910 C0        -158.2360   -30.1959    98.2125 C0            1 RES     
   11911 H4        -166.2301   -37.2170    99.6826 H4            1 RES     
   11912 H5        -164.7795   -37.4635   101.2545 H5            1 RES     
   11913 H4        -168.9624   -40.0414    95.9239 H4            1 RES     
   11914 H6        -168.8832   -35.6991    96.8755 H6            1 RES     
   11915 H6        -168.4316   -36.9314    95.5980 H6            1 RES     
   11916 H6        -171.1781   -36.2046    96.1823 H6            1 RES     
   11917 H6        -170.7294   -37.6699    93.6572 H6            1 RES     
   11918 H6        -170.1011   -38.6407    94.9079 H6            1 RES     
   11919 H6        -172.3271   -38.2993    96.2123 H6            1 RES     
   11920 H6        -172.9085   -37.3997    94.7539 H6            1 RES     
   11921 H6        -172.5561   -39.5712    93.4048 H6            1 RES     
   11922 H6        -172.0742   -40.3675    94.9549 H6            1 RES     
   11923 H6        -174.7829   -39.0223    94.2985 H6            1 RES     
   11924 H6        -174.3397   -39.6594    95.9302 H6            1 RES     
   11925 H6        -174.5086   -41.3774    93.3716 H6            1 RES     
   11926 H6        -174.0985   -41.9460    95.0384 H6            1 RES     
   11927 H6        -176.3499   -41.1542    95.8496 H6            1 RES     
   11928 H6        -176.7560   -40.6293    94.1676 H6            1 RES     
   11929 H6        -176.4921   -42.3762    94.5317 H6            1 RES     
   11930 H6        -169.7700   -34.5057    95.1972 H6            1 RES     
   11931 H6        -169.0166   -35.6153    94.0215 H6            1 RES     
   11932 H6        -171.8920   -34.5209    93.7461 H6            1 RES     
   11933 H6        -170.3557   -33.8372    93.1697 H6            1 RES     
   11934 H6        -169.8744   -35.9610    91.8466 H6            1 RES     
   11935 H6        -171.6185   -36.3846    92.0496 H6            1 RES     
   11936 H6        -172.1472   -34.0583    90.9635 H6            1 RES     
   11937 H6        -170.3821   -33.8083    90.8620 H6            1 RES     
   11938 H6        -170.2152   -35.9302    89.4407 H6            1 RES     
   11939 H6        -172.0061   -35.8622    89.2969 H6            1 RES     
   11940 H6        -170.8154   -34.8575    87.3487 H6            1 RES     
   11941 H6        -169.8744   -33.7713    88.4252 H6            1 RES     
   11942 H6        -171.9423   -32.5215    89.0257 H6            1 RES     
   11943 H6        -172.9271   -33.6255    87.9825 H6            1 RES     
   11944 H6        -171.6153   -32.8931    85.9735 H6            1 RES     
   11945 H6        -170.6131   -31.8070    87.0125 H6            1 RES     
   11946 H6        -172.3737   -31.4864    86.8051 H6            1 RES     
   11947 H6        -166.3903   -38.6155    97.6811 H6            1 RES     
   11948 H6        -167.0802   -38.5379    96.0681 H6            1 RES     
   11949 H6        -165.0648   -37.5110    96.0158 H6            1 RES     
   11950 H6        -167.0735   -35.1858    95.7159 H6            1 RES     
   11951 H6        -166.7359   -36.5643    94.5431 H6            1 RES     
   11952 H6        -164.9130   -34.2512    95.1941 H6            1 RES     
   11953 H6        -164.5231   -35.7311    94.1746 H6            1 RES     
   11954 H6        -164.9998   -33.8883    92.8024 H6            1 RES     
   11955 H6        -166.4058   -34.9926    92.6222 H6            1 RES     
   11956 H6        -166.2903   -32.5490    94.5359 H6            1 RES     
   11957 H6        -167.7757   -33.4447    94.0753 H6            1 RES     
   11958 H6        -165.9020   -31.7582    92.2489 H6            1 RES     
   11959 H6        -167.4587   -31.1907    92.9447 H6            1 RES     
   11960 H6        -167.7115   -31.8240    90.5732 H6            1 RES     
   11961 H6        -168.6963   -32.8442    91.6765 H6            1 RES     
   11962 H6        -167.1859   -33.5112    90.9280 H6            1 RES     
   11963 H6        -165.4408   -35.1485    97.9592 H6            1 RES     
   11964 H6        -164.7030   -36.7334    98.4057 H6            1 RES     
   11965 H6        -163.0920   -36.7691    96.7452 H6            1 RES     
   11966 H6        -163.4088   -35.1740    96.1220 H6            1 RES     
   11967 H6        -161.4306   -35.4789    97.2941 H6            1 RES     
   11968 H6        -162.1936   -35.6779    98.8789 H6            1 RES     
   11969 H6        -162.7647   -33.2296    98.8686 H6            1 RES     
   11970 H6        -162.5263   -33.1288    97.0831 H6            1 RES     
   11971 H6        -160.1725   -33.6510    97.1989 H6            1 RES     
   11972 H6        -160.2043   -33.8033    98.9953 H6            1 RES     
   11973 H6        -160.5968   -31.3734    99.2114 H6            1 RES     
   11974 H6        -160.7587   -31.1955    97.4177 H6            1 RES     
   11975 H6        -158.4402   -31.9974    97.0600 H6            1 RES     
   11976 H6        -158.2127   -32.2550    98.8295 H6            1 RES     
   11977 H6        -158.4457   -29.8118    99.2322 H6            1 RES     
   11978 H6        -158.7104   -29.5342    97.4582 H6            1 RES     
   11979 H6        -157.1345   -30.1731    98.0519 H6            1 RES     
   11980 C0        -170.3846   -49.1715    93.6568 C0            1 RES     
   11981 C1        -170.5821   -49.7695    94.8701 C1            1 RES     
   11982 C1        -171.6764   -49.3211    95.5168 C1            1 RES     
   11983 C1        -172.2632   -48.3705    94.8592 C1            1 RES     
   11984 C1        -171.5281   -48.0786    93.6161 C1            1 RES     
   11985 C1        -171.1572   -46.6591    94.0185 C1            1 RES     
   11986 C1        -171.8684   -46.0952    95.0379 C1            1 RES     
   11987 S2        -173.2644   -47.1281    95.5989 S2            1 RES     
   11988 C1        -171.4992   -44.7676    95.6868 C1            1 RES     
   11989 C1        -170.5958   -43.8615    95.0571 C1            1 RES     
   11990 N3        -170.2405   -42.6810    95.6424 N3            1 RES     
   11991 C1        -170.6965   -42.2989    96.8562 C1            1 RES     
   11992 C1        -171.5643   -43.1400    97.5415 C1            1 RES     
   11993 C1        -171.9760   -44.3757    96.9557 C1            1 RES     
   11994 N3        -172.8177   -45.1175    97.7295 N3            1 RES     
   11995 S2        -172.9956   -44.1795    99.0834 S2            1 RES     
   11996 N3        -172.0561   -42.8573    98.7724 N3            1 RES     
   11997 S2        -171.8557   -49.9542    97.0558 S2            1 RES     
   11998 C1        -170.4514   -50.8892    96.9113 C1            1 RES     
   11999 C1        -169.8392   -50.6494    95.6750 C1            1 RES     
   12000 C0        -170.4885   -50.3285    92.5500 C0            1 RES     
   12001 C0        -170.9019   -51.8690    92.3251 C0            1 RES     
   12002 C0        -170.2659   -52.9059    93.3038 C0            1 RES     
   12003 C0        -171.3501   -53.6998    94.0569 C0            1 RES     
   12004 C0        -170.8057   -54.6083    95.1740 C0            1 RES     
   12005 C0        -171.9619   -55.4306    95.7745 C0            1 RES     
   12006 C0        -171.5517   -56.2162    97.0263 C0            1 RES     
   12007 C0        -172.7292   -57.0390    97.5544 C0            1 RES     
   12008 C0        -170.4646   -52.1881    90.8265 C0            1 RES     
   12009 C0        -170.6125   -53.5457    90.0702 C0            1 RES     
   12010 C0        -169.5090   -54.6236    90.2996 C0            1 RES     
   12011 C0        -169.3359   -55.5403    89.0496 C0            1 RES     
   12012 C0        -168.1844   -56.5584    89.1824 C0            1 RES     
   12013 C0        -167.6669   -57.1114    87.8289 C0            1 RES     
   12014 C0        -168.7121   -57.8262    86.9601 C0            1 RES     
   12015 C0        -168.0699   -58.3643    85.6741 C0            1 RES     
   12016 C0        -168.8836   -48.6480    93.4423 C0            1 RES     
   12017 C0        -168.2114   -48.0919    92.0548 C0            1 RES     
   12018 C0        -168.2025   -49.1657    90.8939 C0            1 RES     
   12019 C0        -167.3370   -48.9237    89.6615 C0            1 RES     
   12020 C0        -167.2640   -50.0935    88.6635 C0            1 RES     
   12021 C0        -168.5670   -50.2864    87.8602 C0            1 RES     
   12022 C0        -168.3345   -51.0655    86.5529 C0            1 RES     
   12023 C0        -167.9265   -52.5132    86.7642 C0            1 RES     
   12024 C0        -168.5412   -46.6158    91.5440 C0            1 RES     
   12025 C0        -167.3018   -45.9578    90.8265 C0            1 RES     
   12026 C0        -167.2485   -44.4747    90.3667 C0            1 RES     
   12027 C0        -167.7907   -44.0973    88.9492 C0            1 RES     
   12028 C0        -166.9296   -42.9245    88.3853 C0            1 RES     
   12029 C0        -167.2741   -42.4023    86.9736 C0            1 RES     
   12030 C0        -166.1574   -41.4373    86.5019 C0            1 RES     
   12031 C0        -166.4262   -40.8115    85.1341 C0            1 RES     
   12032 H4        -170.3245   -46.1667    93.5891 H4            1 RES     
   12033 H5        -170.1835   -44.0761    94.0847 H5            1 RES     
   12034 H4        -168.8883   -51.0847    95.4115 H4            1 RES     
   12035 H6        -171.0175   -49.8082    91.7231 H6            1 RES     
   12036 H6        -169.4645   -50.5604    92.3369 H6            1 RES     
   12037 H6        -172.0099   -51.9505    92.3777 H6            1 RES     
   12038 H6        -169.6082   -53.6222    92.7797 H6            1 RES     
   12039 H6        -169.5778   -52.4192    93.9852 H6            1 RES     
   12040 H6        -172.0587   -52.9853    94.5307 H6            1 RES     
   12041 H6        -171.9028   -54.3128    93.3109 H6            1 RES     
   12042 H6        -170.0288   -55.3021    94.7838 H6            1 RES     
   12043 H6        -170.3486   -53.9652    95.9582 H6            1 RES     
   12044 H6        -172.3351   -56.1352    94.9977 H6            1 RES     
   12045 H6        -172.7907   -54.7469    96.0608 H6            1 RES     
   12046 H6        -170.7069   -56.9009    96.7987 H6            1 RES     
   12047 H6        -171.2323   -55.5019    97.8167 H6            1 RES     
   12048 H6        -173.5947   -56.3802    97.7834 H6            1 RES     
   12049 H6        -173.0411   -57.7928    96.7997 H6            1 RES     
   12050 H6        -172.4357   -57.5701    98.4842 H6            1 RES     
   12051 H6        -171.0484   -51.4663    90.2142 H6            1 RES     
   12052 H6        -169.3922   -51.9221    90.6938 H6            1 RES     
   12053 H6        -171.6362   -53.9674    90.1257 H6            1 RES     
   12054 H6        -170.4615   -53.2310    89.0132 H6            1 RES     
   12055 H6        -168.5310   -54.1068    90.4271 H6            1 RES     
   12056 H6        -169.7180   -55.2201    91.2107 H6            1 RES     
   12057 H6        -170.2795   -56.0673    88.7945 H6            1 RES     
   12058 H6        -169.0761   -54.8889    88.2016 H6            1 RES     
   12059 H6        -167.3058   -56.0517    89.6385 H6            1 RES     
   12060 H6        -168.4941   -57.3827    89.8594 H6            1 RES     
   12061 H6        -166.8384   -57.8216    88.0459 H6            1 RES     
   12062 H6        -167.2412   -56.2689    87.2391 H6            1 RES     
   12063 H6        -169.5152   -57.1131    86.6777 H6            1 RES     
   12064 H6        -169.1569   -58.6746    87.5204 H6            1 RES     
   12065 H6        -167.2788   -59.1073    85.9145 H6            1 RES     
   12066 H6        -167.6158   -57.5390    85.0836 H6            1 RES     
   12067 H6        -168.8372   -58.8627    85.0444 H6            1 RES     
   12068 H6        -168.6939   -47.8779    94.2219 H6            1 RES     
   12069 H6        -168.2159   -49.4934    93.7265 H6            1 RES     
   12070 H6        -167.1542   -48.0097    92.3883 H6            1 RES     
   12071 H6        -169.2314   -49.3195    90.5172 H6            1 RES     
   12072 H6        -167.7683   -50.0942    91.3227 H6            1 RES     
   12073 H6        -167.7464   -48.0815    89.0764 H6            1 RES     
   12074 H6        -166.3034   -48.7237    90.0181 H6            1 RES     
   12075 H6        -166.4749   -49.7992    87.9396 H6            1 RES     
   12076 H6        -166.9396   -51.0371    89.1563 H6            1 RES     
   12077 H6        -168.9331   -49.2883    87.5392 H6            1 RES     
   12078 H6        -169.3585   -50.7547    88.4825 H6            1 RES     
   12079 H6        -167.5515   -50.5496    85.9558 H6            1 RES     
   12080 H6        -169.2750   -51.0583    85.9605 H6            1 RES     
   12081 H6        -167.7645   -53.0011    85.7790 H6            1 RES     
   12082 H6        -168.7528   -53.0236    87.2793 H6            1 RES     
   12083 H6        -166.9926   -52.5968    87.3568 H6            1 RES     
   12084 H6        -169.4793   -46.5895    90.9473 H6            1 RES     
   12085 H6        -168.6530   -45.9605    92.4230 H6            1 RES     
   12086 H6        -166.4962   -46.0345    91.5882 H6            1 RES     
   12087 H6        -166.9238   -46.4973    89.9645 H6            1 RES     
   12088 H6        -166.1475   -44.3343    90.2790 H6            1 RES     
   12089 H6        -167.5788   -43.7577    91.1466 H6            1 RES     
   12090 H6        -168.8743   -43.8528    88.9942 H6            1 RES     
   12091 H6        -167.6504   -44.9469    88.2458 H6            1 RES     
   12092 H6        -165.8841   -43.3039    88.3292 H6            1 RES     
   12093 H6        -166.9513   -42.0658    89.0902 H6            1 RES     
   12094 H6        -168.2540   -41.8785    86.9991 H6            1 RES     
   12095 H6        -167.3333   -43.2453    86.2514 H6            1 RES     
   12096 H6        -165.1982   -41.9990    86.4368 H6            1 RES     
   12097 H6        -166.0288   -40.6140    87.2375 H6            1 RES     
   12098 H6        -167.3394   -40.1820    85.1683 H6            1 RES     
   12099 H6        -166.5393   -41.5933    84.3546 H6            1 RES     
   12100 H6        -165.5664   -40.1620    84.8535 H6            1 RES     
   12101 C0        -165.1259   -54.8257   103.3090 C0            1 RES     
   12102 C1        -165.7871   -54.1731   104.3118 C1            1 RES     
   12103 C1        -167.1135   -54.4123   104.3234 C1            1 RES     
   12104 C1        -167.4710   -55.1668   103.3317 C1            1 RES     
   12105 C1        -166.3030   -55.5077   102.5008 C1            1 RES     
   12106 C1        -166.8139   -54.7871   101.2623 C1            1 RES     
   12107 C1        -168.1437   -54.4817   101.2239 C1            1 RES     
   12108 S2        -169.0821   -55.1760   102.6266 S2            1 RES     
   12109 C1        -168.7730   -53.5982   100.1546 C1            1 RES     
   12110 C1        -168.0898   -53.3090    98.9367 C1            1 RES     
   12111 N3        -168.6356   -52.4988    97.9838 N3            1 RES     
   12112 C1        -169.8392   -51.9016    98.1320 C1            1 RES     
   12113 C1        -170.5555   -52.1184    99.3025 C1            1 RES     
   12114 C1        -170.0284   -52.9749   100.3166 C1            1 RES     
   12115 N3        -170.8174   -53.0983   101.4211 N3            1 RES     
   12116 S2        -172.1175   -52.1395   101.0536 S2            1 RES     
   12117 N3        -171.7579   -51.5462    99.5548 N3            1 RES     
   12118 S2        -167.9487   -53.5196   105.4666 S2            1 RES     
   12119 C1        -166.5340   -52.7696   106.0174 C1            1 RES     
   12120 C1        -165.4369   -53.1970   105.2597 C1            1 RES     
   12121 C0        -164.0934   -55.8307   104.0150 C0            1 RES     
   12122 C0        -163.6763   -56.4694   105.4337 C0            1 RES     
   12123 C0        -163.4495   -55.4631   106.6056 C0            1 RES     
   12124 C0        -164.3760   -55.7753   107.7960 C0            1 RES     
   12125 C0        -164.3454   -54.7176   108.9140 C0            1 RES     
   12126 C0        -165.2181   -55.1917   110.0917 C0            1 RES     
   12127 C0        -165.4092   -54.1153   111.1676 C0            1 RES     
   12128 C0        -166.2522   -54.6558   112.3249 C0            1 RES     
   12129 C0        -162.3345   -57.2745   105.1335 C0            1 RES     
   12130 C0        -161.4738   -58.0854   106.1524 C0            1 RES     
   12131 C0        -160.4457   -57.2949   107.0188 C0            1 RES     
   12132 C0        -159.2206   -58.1803   107.4030 C0            1 RES     
   12133 C0        -158.1218   -57.4179   108.1723 C0            1 RES     
   12134 C0        -156.7267   -58.0935   108.1223 C0            1 RES     
   12135 C0        -156.6609   -59.5238   108.6774 C0            1 RES     
   12136 C0        -155.2255   -60.0634   108.6135 C0            1 RES     
   12137 C0        -164.1385   -53.8760   102.4746 C0            1 RES     
   12138 C0        -163.0234   -54.3300   101.3625 C0            1 RES     
   12139 C0        -161.9096   -55.2851   101.9525 C0            1 RES     
   12140 C0        -160.6386   -55.5345   101.1470 C0            1 RES     
   12141 C0        -159.5446   -56.3414   101.8693 C0            1 RES     
   12142 C0        -159.8915   -57.8377   102.0140 C0            1 RES     
   12143 C0        -158.6405   -58.7057   102.2409 C0            1 RES     
   12144 C0        -157.9510   -58.4548   103.5709 C0            1 RES     
   12145 C0        -163.4851   -54.7366    99.8894 C0            1 RES     
   12146 C0        -162.4218   -54.3090    98.8075 C0            1 RES     
   12147 C0        -162.6496   -54.4136    97.2743 C0            1 RES     
   12148 C0        -162.2988   -55.7504    96.5422 C0            1 RES     
   12149 C0        -161.7838   -55.4101    95.1089 C0            1 RES     
   12150 C0        -161.3518   -56.5879    94.2087 C0            1 RES     
   12151 C0        -160.6382   -56.0315    92.9510 C0            1 RES     
   12152 C0        -160.2183   -57.1128    91.9564 C0            1 RES     
   12153 H4        -166.1504   -54.4559   100.5070 H4            1 RES     
   12154 H5        -167.1265   -53.7435    98.7250 H5            1 RES     
   12155 H4        -164.4504   -52.7823   105.3937 H4            1 RES     
   12156 H6        -164.1480   -56.7198   103.3510 H6            1 RES     
   12157 H6        -163.1617   -55.3041   103.9654 H6            1 RES     
   12158 H6        -164.4528   -57.2076   105.7326 H6            1 RES     
   12159 H6        -162.4045   -55.4718   106.9638 H6            1 RES     
   12160 H6        -163.5658   -54.4415   106.2628 H6            1 RES     
   12161 H6        -165.4251   -55.8378   107.4317 H6            1 RES     
   12162 H6        -164.0790   -56.7651   108.2079 H6            1 RES     
   12163 H6        -163.3074   -54.5457   109.2752 H6            1 RES     
   12164 H6        -164.7438   -53.7627   108.5052 H6            1 RES     
   12165 H6        -164.7430   -56.0909   110.5442 H6            1 RES     
   12166 H6        -166.2249   -55.4746   109.7140 H6            1 RES     
   12167 H6        -164.4268   -53.7796   111.5634 H6            1 RES     
   12168 H6        -165.9338   -53.2423   110.7209 H6            1 RES     
   12169 H6        -167.2404   -55.0080   111.9574 H6            1 RES     
   12170 H6        -165.7297   -55.5031   112.8188 H6            1 RES     
   12171 H6        -166.4213   -53.8575   113.0779 H6            1 RES     
   12172 H6        -162.6333   -58.0234   104.3675 H6            1 RES     
   12173 H6        -161.6019   -56.5949   104.6438 H6            1 RES     
   12174 H6        -162.0676   -58.8060   106.7500 H6            1 RES     
   12175 H6        -160.8363   -58.6943   105.4727 H6            1 RES     
   12176 H6        -160.0310   -56.4637   106.4047 H6            1 RES     
   12177 H6        -160.9303   -56.8652   107.9189 H6            1 RES     
   12178 H6        -159.5292   -59.0798   107.9764 H6            1 RES     
   12179 H6        -158.7594   -58.5230   106.4646 H6            1 RES     
   12180 H6        -157.9743   -56.4227   107.6985 H6            1 RES     
   12181 H6        -158.4493   -57.2531   109.2208 H6            1 RES     
   12182 H6        -156.0189   -57.4556   108.6967 H6            1 RES     
   12183 H6        -156.3784   -58.1139   107.0652 H6            1 RES     
   12184 H6        -157.3120   -60.1903   108.0731 H6            1 RES     
   12185 H6        -157.0023   -59.5384   109.7332 H6            1 RES     
   12186 H6        -154.5460   -59.4388   109.2331 H6            1 RES     
   12187 H6        -154.8506   -60.0668   107.5669 H6            1 RES     
   12188 H6        -155.1919   -61.1044   108.9995 H6            1 RES     
   12189 H6        -164.7678   -53.0933   101.9968 H6            1 RES     
   12190 H6        -163.5344   -53.3183   103.2264 H6            1 RES     
   12191 H6        -162.5194   -53.3520   101.2045 H6            1 RES     
   12192 H6        -162.3410   -56.2834   102.1563 H6            1 RES     
   12193 H6        -161.5267   -54.7962   102.8738 H6            1 RES     
   12194 H6        -160.8766   -56.1285   100.2471 H6            1 RES     
   12195 H6        -160.2087   -54.5415   100.8928 H6            1 RES     
   12196 H6        -158.6579   -56.2749   101.2038 H6            1 RES     
   12197 H6        -159.2720   -55.8847   102.8468 H6            1 RES     
   12198 H6        -160.3186   -58.1942   101.0529 H6            1 RES     
   12199 H6        -160.6534   -58.0000   102.8053 H6            1 RES     
   12200 H6        -157.9175   -58.5253   101.4159 H6            1 RES     
   12201 H6        -158.9372   -59.7763   102.2063 H6            1 RES     
   12202 H6        -157.0540   -59.1056   103.6529 H6            1 RES     
   12203 H6        -158.6560   -58.7227   104.3707 H6            1 RES     
   12204 H6        -157.6308   -57.3981   103.6772 H6            1 RES     
   12205 H6        -163.7845   -55.8062    99.8352 H6            1 RES     
   12206 H6        -164.3436   -54.1058    99.6074 H6            1 RES     
   12207 H6        -162.2974   -53.2197    98.9892 H6            1 RES     
   12208 H6        -161.4304   -54.7292    98.9392 H6            1 RES     
   12209 H6        -161.8783   -53.6980    96.9104 H6            1 RES     
   12210 H6        -163.6228   -53.9966    96.9421 H6            1 RES     
   12211 H6        -163.1736   -56.4362    96.5336 H6            1 RES     
   12212 H6        -161.4563   -56.2608    97.0579 H6            1 RES     
   12213 H6        -160.8789   -54.7754    95.2450 H6            1 RES     
   12214 H6        -162.5477   -54.8155    94.5633 H6            1 RES     
   12215 H6        -162.2453   -57.1811    93.9171 H6            1 RES     
   12216 H6        -160.6396   -57.2488    94.7490 H6            1 RES     
   12217 H6        -159.7208   -55.4856    93.2679 H6            1 RES     
   12218 H6        -161.3028   -55.3157    92.4207 H6            1 RES     
   12219 H6        -161.1096   -57.6404    91.5580 H6            1 RES     
   12220 H6        -159.5312   -57.8440    92.4307 H6            1 RES     
   12221 H6        -159.6850   -56.6373    91.1024 H6            1 RES     
   12222 C0        -165.2827   -45.0282   110.8437 C0            1 RES     
   12223 C1        -166.6001   -44.6891   110.7087 C1            1 RES     
   12224 C1        -167.4459   -45.6271   111.1794 C1            1 RES     
   12225 C1        -166.8095   -46.6747   111.6013 C1            1 RES     
   12226 C1        -165.3584   -46.5023   111.4139 C1            1 RES     
   12227 C1        -165.2220   -47.6469   110.4211 C1            1 RES     
   12228 C1        -166.2402   -48.5546   110.3737 C1            1 RES     
   12229 S2        -167.4998   -48.2910   111.6677 S2            1 RES     
   12230 C1        -166.3503   -49.6400   109.3109 C1            1 RES     
   12231 C1        -165.2331   -49.9991   108.5007 C1            1 RES     
   12232 N3        -165.3291   -50.9532   107.5297 N3            1 RES     
   12233 C1        -166.4812   -51.6042   107.2540 C1            1 RES     
   12234 C1        -167.6193   -51.2927   107.9874 C1            1 RES     
   12235 C1        -167.5568   -50.3138   109.0254 C1            1 RES     
   12236 N3        -168.7396   -50.0877   109.6638 N3            1 RES     
   12237 S2        -169.7764   -51.1273   108.8964 S2            1 RES     
   12238 N3        -168.8251   -51.8720   107.7701 N3            1 RES     
   12239 S2        -169.0594   -45.2780   110.9036 S2            1 RES     
   12240 C1        -168.6850   -43.8146   110.1385 C1            1 RES     
   12241 C1        -167.2963   -43.6498   110.0691 C1            1 RES     
   12242 C0        -164.6234   -43.9381   111.8192 C0            1 RES     
   12243 C0        -164.9661   -42.7198   112.8156 C0            1 RES     
   12244 C0        -165.8970   -41.6025   112.2477 C0            1 RES     
   12245 C0        -167.1590   -41.4339   113.1149 C0            1 RES     
   12246 C0        -168.2128   -40.4841   112.5177 C0            1 RES     
   12247 C0        -169.3698   -40.3077   113.5196 C0            1 RES     
   12248 C0        -170.5597   -39.5386   112.9320 C0            1 RES     
   12249 C0        -171.6589   -39.3646   113.9825 C0            1 RES     
   12250 C0        -163.5475   -42.1076   113.2051 C0            1 RES     
   12251 C0        -163.2716   -40.8890   114.1408 C0            1 RES     
   12252 C0        -163.3758   -39.4629   113.5183 C0            1 RES     
   12253 C0        -162.4287   -38.4538   114.2378 C0            1 RES     
   12254 C0        -162.4136   -37.0515   113.5947 C0            1 RES     
   12255 C0        -161.1589   -36.2081   113.9408 C0            1 RES     
   12256 C0        -160.9258   -35.9466   115.4359 C0            1 RES     
   12257 C0        -159.6846   -35.0681   115.6443 C0            1 RES     
   12258 C0        -164.4315   -44.8213   109.4999 C0            1 RES     
   12259 C0        -162.8032   -44.8998   109.3303 C0            1 RES     
   12260 C0        -162.0343   -43.8299   110.2050 C0            1 RES     
   12261 C0        -160.5604   -43.5568   109.9229 C0            1 RES     
   12262 C0        -159.9412   -42.3879   110.7101 C0            1 RES     
   12263 C0        -159.7206   -42.7119   112.2022 C0            1 RES     
   12264 C0        -158.6654   -41.7949   112.8469 C0            1 RES     
   12265 C0        -159.0914   -40.3402   112.9430 C0            1 RES     
   12266 C0        -162.0729   -46.3187   109.2863 C0            1 RES     
   12267 C0        -160.8244   -46.3010   108.3246 C0            1 RES     
   12268 C0        -160.0051   -47.5634   107.9385 C0            1 RES     
   12269 C0        -158.8184   -48.0099   108.8539 C0            1 RES     
   12270 C0        -157.7054   -48.6322   107.9543 C0            1 RES     
   12271 C0        -156.4175   -49.1224   108.6507 C0            1 RES     
   12272 C0        -155.3530   -49.4553   107.5751 C0            1 RES     
   12273 C0        -154.0512   -50.0091   108.1526 C0            1 RES     
   12274 H4        -164.4175   -47.6849   109.7343 H4            1 RES     
   12275 H5        -164.2699   -49.5389   108.6495 H5            1 RES     
   12276 H4        -166.8420   -42.8210   109.5497 H4            1 RES     
   12277 H6        -163.9267   -44.5601   112.4209 H6            1 RES     
   12278 H6        -164.1361   -43.2639   111.1441 H6            1 RES     
   12279 H6        -165.4196   -43.1358   113.7421 H6            1 RES     
   12280 H6        -165.3831   -40.6266   112.1842 H6            1 RES     
   12281 H6        -166.1448   -41.7989   111.2111 H6            1 RES     
   12282 H6        -167.6457   -42.4259   113.2427 H6            1 RES     
   12283 H6        -166.8389   -41.0594   114.1123 H6            1 RES     
   12284 H6        -167.7723   -39.4883   112.2902 H6            1 RES     
   12285 H6        -168.5928   -40.9308   111.5723 H6            1 RES     
   12286 H6        -168.9836   -39.7700   114.4144 H6            1 RES     
   12287 H6        -169.7374   -41.3076   113.8379 H6            1 RES     
   12288 H6        -170.2396   -38.5361   112.5757 H6            1 RES     
   12289 H6        -170.9744   -40.1097   112.0724 H6            1 RES     
   12290 H6        -171.9942   -40.3531   114.3647 H6            1 RES     
   12291 H6        -171.2840   -38.7581   114.8349 H6            1 RES     
   12292 H6        -172.5329   -38.8452   113.5364 H6            1 RES     
   12293 H6        -163.0106   -42.9533   113.6882 H6            1 RES     
   12294 H6        -162.9860   -41.8650   112.2754 H6            1 RES     
   12295 H6        -163.7872   -40.9639   115.1194 H6            1 RES     
   12296 H6        -162.1850   -41.0090   114.3506 H6            1 RES     
   12297 H6        -163.0161   -39.5095   112.4655 H6            1 RES     
   12298 H6        -164.4246   -39.1027   113.5206 H6            1 RES     
   12299 H6        -162.6642   -38.3714   115.3198 H6            1 RES     
   12300 H6        -161.4048   -38.8465   114.1465 H6            1 RES     
   12301 H6        -162.3871   -37.1622   112.4885 H6            1 RES     
   12302 H6        -163.3459   -36.5104   113.8627 H6            1 RES     
   12303 H6        -161.2516   -35.2301   113.4183 H6            1 RES     
   12304 H6        -160.2600   -36.7227   113.5330 H6            1 RES     
   12305 H6        -160.7646   -36.9101   115.9639 H6            1 RES     
   12306 H6        -161.8061   -35.4324   115.8741 H6            1 RES     
   12307 H6        -159.8199   -34.0792   115.1550 H6            1 RES     
   12308 H6        -158.7798   -35.5548   115.2196 H6            1 RES     
   12309 H6        -159.5139   -34.9004   116.7290 H6            1 RES     
   12310 H6        -164.8670   -45.4982   108.7324 H6            1 RES     
   12311 H6        -164.6758   -43.7988   109.1314 H6            1 RES     
   12312 H6        -162.7148   -44.5416   108.2817 H6            1 RES     
   12313 H6        -162.0926   -44.1079   111.2744 H6            1 RES     
   12314 H6        -162.5118   -42.8481   109.9989 H6            1 RES     
   12315 H6        -159.9561   -44.4366   110.2062 H6            1 RES     
   12316 H6        -160.4704   -43.3164   108.8414 H6            1 RES     
   12317 H6        -158.9382   -42.2410   110.2563 H6            1 RES     
   12318 H6        -160.5183   -41.4462   110.5734 H6            1 RES     
   12319 H6        -159.2984   -43.7361   112.2809 H6            1 RES     
   12320 H6        -160.6781   -42.6951   112.7641 H6            1 RES     
   12321 H6        -157.7210   -41.8605   112.2641 H6            1 RES     
   12322 H6        -158.4567   -42.1588   113.8763 H6            1 RES     
   12323 H6        -158.2749   -39.7437   113.4039 H6            1 RES     
   12324 H6        -159.9754   -40.2911   113.5946 H6            1 RES     
   12325 H6        -159.3224   -39.9108   111.9467 H6            1 RES     
   12326 H6        -161.8545   -46.6982   110.3085 H6            1 RES     
   12327 H6        -162.7326   -47.0335   108.7683 H6            1 RES     
   12328 H6        -161.2506   -45.9492   107.3604 H6            1 RES     
   12329 H6        -160.0573   -45.5751   108.5726 H6            1 RES     
   12330 H6        -159.5070   -47.2000   107.0115 H6            1 RES     
   12331 H6        -160.6354   -48.4199   107.6215 H6            1 RES     
   12332 H6        -159.1715   -48.7063   109.6452 H6            1 RES     
   12333 H6        -158.3575   -47.1247   109.3441 H6            1 RES     
   12334 H6        -157.3906   -47.8306   107.2481 H6            1 RES     
   12335 H6        -158.1241   -49.4739   107.3617 H6            1 RES     
   12336 H6        -156.6443   -50.0216   109.2632 H6            1 RES     
   12337 H6        -156.0073   -48.3285   109.3120 H6            1 RES     
   12338 H6        -155.1075   -48.5276   107.0104 H6            1 RES     
   12339 H6        -155.7563   -50.2024   106.8578 H6            1 RES     
   12340 H6        -154.2353   -50.9746   108.6677 H6            1 RES     
   12341 H6        -153.5922   -49.2883   108.8608 H6            1 RES     
   12342 H6        -153.3305   -50.1892   107.3233 H6            1 RES     
   12343 C0        -173.6235   -38.5431   104.4280 C0            1 RES     
   12344 C1        -174.5864   -39.5068   104.3141 C1            1 RES     
   12345 C1        -175.1201   -39.8734   105.4963 C1            1 RES     
   12346 C1        -174.5477   -39.2647   106.4874 C1            1 RES     
   12347 C1        -173.4824   -38.3741   105.9949 C1            1 RES     
   12348 C1        -172.3564   -39.1303   106.6840 C1            1 RES     
   12349 C1        -172.7043   -39.9812   107.6929 C1            1 RES     
   12350 S2        -174.4748   -39.8968   108.1270 S2            1 RES     
   12351 C1        -171.7295   -40.9501   108.3493 C1            1 RES     
   12352 C1        -170.3197   -40.8003   108.1952 C1            1 RES     
   12353 N3        -169.4398   -41.6776   108.7594 N3            1 RES     
   12354 C1        -169.8359   -42.7515   109.4787 C1            1 RES     
   12355 C1        -171.1955   -42.9763   109.6542 C1            1 RES     
   12356 C1        -172.1491   -42.0712   109.0963 C1            1 RES     
   12357 N3        -173.4503   -42.4054   109.3263 N3            1 RES     
   12358 S2        -173.3210   -43.7984   110.2138 S2            1 RES     
   12359 N3        -171.6914   -44.0366   110.3374 N3            1 RES     
   12360 S2        -176.2072   -41.1407   105.3802 S2            1 RES     
   12361 C1        -176.0163   -41.2435   103.7008 C1            1 RES     
   12362 C1        -175.0641   -40.3130   103.2673 C1            1 RES     
   12363 C0        -174.1628   -37.2565   103.6354 C0            1 RES     
   12364 C0        -175.4622   -36.6309   102.9180 C0            1 RES     
   12365 C0        -176.1767   -37.5383   101.8674 C0            1 RES     
   12366 C0        -177.6522   -37.7715   102.2434 C0            1 RES     
   12367 C0        -178.3728   -38.8057   101.3599 C0            1 RES     
   12368 C0        -179.8605   -38.8694   101.7553 C0            1 RES     
   12369 C0        -180.6153   -40.0134   101.0669 C0            1 RES     
   12370 C0        -182.0916   -40.0028   101.4704 C0            1 RES     
   12371 C0        -174.9355   -35.2969   102.2239 C0            1 RES     
   12372 C0        -175.7656   -34.2872   101.3705 C0            1 RES     
   12373 C0        -175.9826   -34.6238    99.8633 C0            1 RES     
   12374 C0        -176.1339   -33.3307    99.0043 C0            1 RES     
   12375 C0        -176.2463   -33.6025    97.4897 C0            1 RES     
   12376 C0        -175.8927   -32.3837    96.5982 C0            1 RES     
   12377 C0        -176.7427   -31.1251    96.8258 C0            1 RES     
   12378 C0        -176.3270   -30.0093    95.8575 C0            1 RES     
   12379 C0        -172.2813   -38.8862   103.6193 C0            1 RES     
   12380 C0        -171.0106   -37.8919   103.3311 C0            1 RES     
   12381 C0        -171.4040   -36.6038   102.5023 C0            1 RES     
   12382 C0        -170.3019   -35.7524   101.8803 C0            1 RES     
   12383 C0        -170.7826   -34.6175   100.9581 C0            1 RES     
   12384 C0        -171.4237   -33.4432   101.7263 C0            1 RES     
   12385 C0        -171.4197   -32.1403   100.9064 C0            1 RES     
   12386 C0        -172.3126   -32.1838    99.6785 C0            1 RES     
   12387 C0        -169.9501   -37.5966   104.4872 C0            1 RES     
   12388 C0        -168.4947   -37.4168   103.9098 C0            1 RES     
   12389 C0        -167.2201   -37.2840   104.7881 C0            1 RES     
   12390 C0        -166.7872   -35.8683   105.2923 C0            1 RES     
   12391 C0        -165.2287   -35.8181   105.3507 C0            1 RES     
   12392 C0        -164.5748   -34.4939   105.8013 C0            1 RES     
   12393 C0        -163.0488   -34.5662   105.5421 C0            1 RES     
   12394 C0        -162.2890   -33.3252   106.0080 C0            1 RES     
   12395 H4        -171.3593   -39.0684   106.3344 H4            1 RES     
   12396 H5        -169.9076   -39.9713   107.6433 H5            1 RES     
   12397 H4        -174.7340   -40.2652   102.2417 H4            1 RES     
   12398 H6        -173.8154   -36.4246   104.2848 H6            1 RES     
   12399 H6        -173.6571   -37.3160   102.6928 H6            1 RES     
   12400 H6        -176.1936   -36.3366   103.7025 H6            1 RES     
   12401 H6        -176.1384   -37.1063   100.8514 H6            1 RES     
   12402 H6        -175.6419   -38.4723   101.7396 H6            1 RES     
   12403 H6        -177.7049   -38.1410   103.2912 H6            1 RES     
   12404 H6        -178.1780   -36.7931   102.1805 H6            1 RES     
   12405 H6        -178.2927   -38.5386   100.2831 H6            1 RES     
   12406 H6        -177.8941   -39.7974   101.5183 H6            1 RES     
   12407 H6        -180.3373   -37.8979   101.4946 H6            1 RES     
   12408 H6        -179.9437   -39.0220   102.8536 H6            1 RES     
   12409 H6        -180.5429   -39.9204    99.9622 H6            1 RES     
   12410 H6        -180.1677   -40.9836   101.3758 H6            1 RES     
   12411 H6        -182.1956   -40.0861   102.5740 H6            1 RES     
   12412 H6        -182.5757   -39.0608   101.1339 H6            1 RES     
   12413 H6        -182.6204   -40.8592   101.0017 H6            1 RES     
   12414 H6        -174.5446   -34.6880   103.0685 H6            1 RES     
   12415 H6        -174.0627   -35.5406   101.5779 H6            1 RES     
   12416 H6        -176.6980   -33.9559   101.8703 H6            1 RES     
   12417 H6        -175.0906   -33.4023   101.3510 H6            1 RES     
   12418 H6        -175.0688   -35.1309    99.4790 H6            1 RES     
   12419 H6        -176.8498   -35.3015    99.7272 H6            1 RES     
   12420 H6        -176.9921   -32.7126    99.3425 H6            1 RES     
   12421 H6        -175.2177   -32.7376    99.1445 H6            1 RES     
   12422 H6        -175.5089   -34.3858    97.2081 H6            1 RES     
   12423 H6        -177.2615   -33.9879    97.2563 H6            1 RES     
   12424 H6        -175.9978   -32.6972    95.5359 H6            1 RES     
   12425 H6        -174.8248   -32.1176    96.7657 H6            1 RES     
   12426 H6        -176.5983   -30.7586    97.8641 H6            1 RES     
   12427 H6        -177.8161   -31.3568    96.6658 H6            1 RES     
   12428 H6        -176.4863   -30.3273    94.8043 H6            1 RES     
   12429 H6        -175.2549   -29.7477    95.9924 H6            1 RES     
   12430 H6        -176.9344   -29.0979    96.0427 H6            1 RES     
   12431 H6        -171.8656   -39.8183   104.0609 H6            1 RES     
   12432 H6        -172.6032   -39.1892   102.5968 H6            1 RES     
   12433 H6        -170.4382   -38.5327   102.6257 H6            1 RES     
   12434 H6        -171.9977   -35.9174   103.1352 H6            1 RES     
   12435 H6        -171.9734   -36.9574   101.6161 H6            1 RES     
   12436 H6        -169.7288   -35.2435   102.6753 H6            1 RES     
   12437 H6        -169.6646   -36.4302   101.2720 H6            1 RES     
   12438 H6        -169.8578   -34.2294   100.4811 H6            1 RES     
   12439 H6        -171.4493   -34.9955   100.1512 H6            1 RES     
   12440 H6        -170.7992   -33.2239   102.6182 H6            1 RES     
   12441 H6        -172.4434   -33.7024   102.0810 H6            1 RES     
   12442 H6        -170.3783   -31.9111   100.5918 H6            1 RES     
   12443 H6        -171.7706   -31.3087   101.5551 H6            1 RES     
   12444 H6        -172.2445   -31.2168    99.1352 H6            1 RES     
   12445 H6        -173.3479   -32.3244   100.0206 H6            1 RES     
   12446 H6        -172.0217   -32.9991    98.9849 H6            1 RES     
   12447 H6        -170.2841   -36.7653   105.1461 H6            1 RES     
   12448 H6        -169.8300   -38.5108   105.0908 H6            1 RES     
   12449 H6        -168.3312   -38.3537   103.3349 H6            1 RES     
   12450 H6        -168.3783   -36.6194   103.1836 H6            1 RES     
   12451 H6        -166.4377   -37.5545   104.0436 H6            1 RES     
   12452 H6        -167.1503   -38.0524   105.5856 H6            1 RES     
   12453 H6        -167.2623   -35.6360   106.2701 H6            1 RES     
   12454 H6        -167.0921   -35.0899   104.5591 H6            1 RES     
   12455 H6        -164.8713   -36.0030   104.3123 H6            1 RES     
   12456 H6        -164.8476   -36.6347   106.0009 H6            1 RES     
   12457 H6        -164.7771   -34.3272   106.8814 H6            1 RES     
   12458 H6        -164.9862   -33.6401   105.2203 H6            1 RES     
   12459 H6        -162.8733   -34.6825   104.4487 H6            1 RES     
   12460 H6        -162.6155   -35.4493   106.0595 H6            1 RES     
   12461 H6        -162.3773   -33.2064   107.1078 H6            1 RES     
   12462 H6        -162.6681   -32.4134   105.5013 H6            1 RES     
   12463 H6        -161.2105   -33.4404   105.7561 H6            1 RES     
   12464 C0        -177.9107   -48.0609    97.8083 C0            1 RES     
   12465 C1        -178.1584   -48.9279    98.8358 C1            1 RES     
   12466 C1        -179.1208   -48.5007    99.6773 C1            1 RES     
   12467 C1        -179.5528   -47.3232    99.3496 C1            1 RES     
   12468 C1        -178.8348   -46.8264    98.1628 C1            1 RES     
   12469 C1        -178.1916   -45.6527    98.8859 C1            1 RES     
   12470 C1        -178.7394   -45.2811   100.0796 C1            1 RES     
   12471 S2        -180.2738   -46.1845   100.4795 S2            1 RES     
   12472 C1        -178.1033   -44.2617   101.0157 C1            1 RES     
   12473 C1        -177.0789   -43.3788   100.5630 C1            1 RES     
   12474 N3        -176.4864   -42.4792   101.4007 N3            1 RES     
   12475 C1        -176.8081   -42.3751   102.7096 C1            1 RES     
   12476 C1        -177.7829   -43.2176   103.2293 C1            1 RES     
   12477 C1        -178.4410   -44.1602   102.3819 C1            1 RES     
   12478 N3        -179.3679   -44.9371   103.0102 N3            1 RES     
   12479 S2        -179.3080   -44.3904   104.5729 S2            1 RES     
   12480 N3        -178.1571   -43.2065   104.5319 N3            1 RES     
   12481 S2        -179.3420   -49.4932   101.0067 S2            1 RES     
   12482 C1        -178.1413   -50.5701   100.4911 C1            1 RES     
   12483 C1        -177.5533   -50.1044    99.3087 C1            1 RES     
   12484 C0        -178.2761   -48.8366    96.4521 C0            1 RES     
   12485 C0        -178.9751   -50.1667    95.8718 C0            1 RES     
   12486 C0        -178.4957   -51.5221    96.4807 C0            1 RES     
   12487 C0        -179.6713   -52.3028    97.0982 C0            1 RES     
   12488 C0        -179.2519   -53.5594    97.8823 C0            1 RES     
   12489 C0        -180.5104   -54.3134    98.3526 C0            1 RES     
   12490 C0        -180.1941   -55.4685    99.3109 C0            1 RES     
   12491 C0        -181.4769   -56.1996    99.7135 C0            1 RES     
   12492 C0        -178.6734   -50.1299    94.3077 C0            1 RES     
   12493 C0        -179.1027   -51.1845    93.2398 C0            1 RES     
   12494 C0        -178.2064   -52.4500    93.0742 C0            1 RES     
   12495 C0        -178.2624   -53.0042    91.6173 C0            1 RES     
   12496 C0        -177.3123   -54.1944    91.3701 C0            1 RES     
   12497 C0        -176.9682   -54.4322    89.8766 C0            1 RES     
   12498 C0        -178.1657   -54.6995    88.9533 C0            1 RES     
   12499 C0        -177.6932   -54.9622    87.5169 C0            1 RES     
   12500 C0        -176.3506   -47.7526    97.5981 C0            1 RES     
   12501 C0        -175.6525   -46.9554    96.3477 C0            1 RES     
   12502 C0        -175.8944   -47.6560    94.9507 C0            1 RES     
   12503 C0        -175.0570   -47.2308    93.7488 C0            1 RES     
   12504 C0        -175.2461   -48.0775    92.4772 C0            1 RES     
   12505 C0        -176.5980   -47.8260    91.7776 C0            1 RES     
   12506 C0        -176.5730   -48.2439    90.2962 C0            1 RES     
   12507 C0        -176.4283   -49.7406    90.0818 C0            1 RES     
   12508 C0        -175.7291   -45.3625    96.2744 C0            1 RES     
   12509 C0        -174.4244   -44.7458    95.6408 C0            1 RES     
   12510 C0        -174.1211   -43.2232    95.5823 C0            1 RES     
   12511 C0        -174.6497   -42.3878    94.3705 C0            1 RES     
   12512 C0        -173.6149   -41.2632    94.0548 C0            1 RES     
   12513 C0        -173.9225   -40.3247    92.8679 C0            1 RES     
   12514 C0        -172.6706   -39.4643    92.5623 C0            1 RES     
   12515 C0        -172.8828   -38.4521    91.4375 C0            1 RES     
   12516 H4        -177.3034   -45.2051    98.5241 H4            1 RES     
   12517 H5        -176.7583   -43.3832    99.5340 H5            1 RES     
   12518 H4        -176.7116   -50.6006    98.8523 H4            1 RES     
   12519 H6        -178.7382   -48.0299    95.8437 H6            1 RES     
   12520 H6        -177.3230   -49.1660    96.0904 H6            1 RES     
   12521 H6        -180.0756   -50.0764    96.0052 H6            1 RES     
   12522 H6        -178.0056   -52.1651    95.7279 H6            1 RES     
   12523 H6        -177.6993   -51.3608    97.1979 H6            1 RES     
   12524 H6        -180.2141   -51.6394    97.8070 H6            1 RES     
   12525 H6        -180.3609   -52.5883    96.2733 H6            1 RES     
   12526 H6        -178.6344   -54.2374    97.2528 H6            1 RES     
   12527 H6        -178.6489   -53.2401    98.7609 H6            1 RES     
   12528 H6        -181.0421   -54.7068    97.4572 H6            1 RES     
   12529 H6        -181.1855   -53.6080    98.8845 H6            1 RES     
   12530 H6        -179.5006   -56.1935    98.8336 H6            1 RES     
   12531 H6        -179.7128   -55.0609   100.2270 H6            1 RES     
   12532 H6        -182.1954   -55.4961   100.1873 H6            1 RES     
   12533 H6        -181.9563   -56.6556    98.8206 H6            1 RES     
   12534 H6        -181.2433   -57.0060   100.4400 H6            1 RES     
   12535 H6        -179.1425   -49.1822    93.9633 H6            1 RES     
   12536 H6        -177.5777   -50.0176    94.1489 H6            1 RES     
   12537 H6        -180.1828   -51.4312    93.2790 H6            1 RES     
   12538 H6        -178.9454   -50.6212    92.2927 H6            1 RES     
   12539 H6        -177.1453   -52.1559    93.2400 H6            1 RES     
   12540 H6        -178.4790   -53.2308    93.8129 H6            1 RES     
   12541 H6        -179.2973   -53.2787    91.3231 H6            1 RES     
   12542 H6        -177.9268   -52.1971    90.9488 H6            1 RES     
   12543 H6        -176.3356   -53.9836    91.8582 H6            1 RES     
   12544 H6        -177.7365   -55.1102    91.8338 H6            1 RES     
   12545 H6        -176.2749   -55.3006    89.8213 H6            1 RES     
   12546 H6        -176.4227   -53.5420    89.4905 H6            1 RES     
   12547 H6        -178.8365   -53.8145    88.9442 H6            1 RES     
   12548 H6        -178.7323   -55.5840    89.3113 H6            1 RES     
   12549 H6        -177.0417   -55.8620    87.4789 H6            1 RES     
   12550 H6        -177.1232   -54.0928    87.1229 H6            1 RES     
   12551 H6        -178.5672   -55.1357    86.8537 H6            1 RES     
   12552 H6        -175.9871   -47.2678    98.5306 H6            1 RES     
   12553 H6        -175.8370   -48.7411    97.5870 H6            1 RES     
   12554 H6        -174.5840   -47.1426    96.5900 H6            1 RES     
   12555 H6        -176.9503   -47.5294    94.6454 H6            1 RES     
   12556 H6        -175.6187   -48.7247    95.0787 H6            1 RES     
   12557 H6        -175.3315   -46.2051    93.4457 H6            1 RES     
   12558 H6        -173.9889   -47.3088    94.0465 H6            1 RES     
   12559 H6        -174.4506   -47.7296    91.7847 H6            1 RES     
   12560 H6        -175.0780   -49.1600    92.6730 H6            1 RES     
   12561 H6        -176.7892   -46.7321    91.7649 H6            1 RES     
   12562 H6        -177.4324   -48.3104    92.3272 H6            1 RES     
   12563 H6        -175.7370   -47.7198    89.7840 H6            1 RES     
   12564 H6        -177.5226   -47.9202    89.8175 H6            1 RES     
   12565 H6        -176.4043   -49.9593    88.9926 H6            1 RES     
   12566 H6        -177.3096   -50.2297    90.5207 H6            1 RES     
   12567 H6        -175.4993   -50.1357    90.5413 H6            1 RES     
   12568 H6        -176.6729   -45.0199    95.7964 H6            1 RES     
   12569 H6        -175.6781   -44.9643    97.3007 H6            1 RES     
   12570 H6        -173.6123   -45.1597    96.2766 H6            1 RES     
   12571 H6        -174.1920   -45.0827    94.6361 H6            1 RES     
   12572 H6        -173.0183   -43.2469    95.4313 H6            1 RES     
   12573 H6        -174.2778   -42.7035    96.5501 H6            1 RES     
   12574 H6        -175.6667   -41.9905    94.5796 H6            1 RES     
   12575 H6        -174.7003   -43.0229    93.4593 H6            1 RES     
   12576 H6        -172.6605   -41.7790    93.8032 H6            1 RES     
   12577 H6        -173.4461   -40.6393    94.9587 H6            1 RES     
   12578 H6        -174.7874   -39.6745    93.1216 H6            1 RES     
   12579 H6        -174.1686   -40.9157    91.9590 H6            1 RES     
   12580 H6        -171.8348   -40.1362    92.2626 H6            1 RES     
   12581 H6        -172.3593   -38.9071    93.4722 H6            1 RES     
   12582 H6        -173.6625   -37.7151    91.7211 H6            1 RES     
   12583 H6        -173.1734   -38.9605    90.4948 H6            1 RES     
   12584 H6        -171.9324   -37.9009    91.2571 H6            1 RES     
   12585 C0        -173.3392   -56.9292   105.1052 C0            1 RES     
   12586 C1        -173.8225   -56.4772   106.3014 C1            1 RES     
   12587 C1        -175.1683   -56.4892   106.3748 C1            1 RES     
   12588 C1        -175.7035   -56.8735   105.2584 C1            1 RES     
   12589 C1        -174.6575   -57.1604   104.2611 C1            1 RES     
   12590 C1        -175.0841   -56.0540   103.3082 C1            1 RES     
   12591 C1        -176.3356   -55.5358   103.4763 C1            1 RES     
   12592 S2        -177.3198   -56.4243   104.7302 S2            1 RES     
   12593 C1        -176.8407   -54.3021   102.7396 C1            1 RES     
   12594 C1        -176.1731   -53.8062   101.5812 C1            1 RES     
   12595 N3        -176.6042   -52.6876   100.9292 N3            1 RES     
   12596 C1        -177.6697   -51.9647   101.3412 C1            1 RES     
   12597 C1        -178.3588   -52.3735   102.4761 C1            1 RES     
   12598 C1        -177.9516   -53.5497   103.1765 C1            1 RES     
   12599 N3        -178.6980   -53.8400   104.2793 N3            1 RES     
   12600 S2        -179.8156   -52.6173   104.2995 S2            1 RES     
   12601 N3        -179.4228   -51.7031   102.9812 N3            1 RES     
   12602 S2        -175.7718   -55.8198   107.7850 S2            1 RES     
   12603 C1        -174.2196   -55.4924   108.3774 C1            1 RES     
   12604 C1        -173.2557   -55.8699   107.4345 C1            1 RES     
   12605 C0        -172.4773   -58.2446   105.4233 C0            1 RES     
   12606 C0        -172.1195   -59.3074   106.5796 C0            1 RES     
   12607 C0        -171.6580   -58.7125   107.9473 C0            1 RES     
   12608 C0        -172.5701   -59.1827   109.0962 C0            1 RES     
   12609 C0        -172.2943   -58.4921   110.4440 C0            1 RES     
   12610 C0        -173.1840   -59.1210   111.5333 C0            1 RES     
   12611 C0        -173.1244   -58.3648   112.8664 C0            1 RES     
   12612 C0        -173.9980   -59.0558   113.9159 C0            1 RES     
   12613 C0        -170.9635   -60.2082   105.9543 C0            1 RES     
   12614 C0        -170.2201   -61.3973   106.6399 C0            1 RES     
   12615 C0        -169.0256   -61.0547   107.5822 C0            1 RES     
   12616 C0        -167.9673   -62.2002   107.6043 C0            1 RES     
   12617 C0        -166.7130   -61.8692   108.4395 C0            1 RES     
   12618 C0        -165.4694   -62.7248   108.0834 C0            1 RES     
   12619 C0        -165.6417   -64.2431   108.2360 C0            1 RES     
   12620 C0        -164.3342   -64.9725   107.8985 C0            1 RES     
   12621 C0        -172.2339   -55.9625   104.4594 C0            1 RES     
   12622 C0        -171.2736   -56.2709   103.1675 C0            1 RES     
   12623 C0        -170.3280   -57.5206   103.3795 C0            1 RES     
   12624 C0        -169.1628   -57.7447   102.4210 C0            1 RES     
   12625 C0        -168.2034   -58.8869   102.8007 C0            1 RES     
   12626 C0        -168.8119   -60.2875   102.5807 C0            1 RES     
   12627 C0        -167.7323   -61.3775   102.4539 C0            1 RES     
   12628 C0        -166.9479   -61.6178   103.7322 C0            1 RES     
   12629 C0        -171.8695   -56.1763   101.6895 C0            1 RES     
   12630 C0        -170.7969   -55.6490   100.6622 C0            1 RES     
   12631 C0        -171.1105   -55.2902    99.1835 C0            1 RES     
   12632 C0        -171.0452   -56.4137    98.0975 C0            1 RES     
   12633 C0        -170.5432   -55.7828    96.7614 C0            1 RES     
   12634 C0        -170.3767   -56.7228    95.5478 C0            1 RES     
   12635 C0        -169.6319   -55.9678    94.4182 C0            1 RES     
   12636 C0        -169.4639   -56.7885    93.1403 C0            1 RES     
   12637 H4        -174.4067   -55.6420   102.6070 H4            1 RES     
   12638 H5        -175.3166   -54.3180   101.1734 H5            1 RES     
   12639 H4        -172.2048   -55.6756   107.5790 H4            1 RES     
   12640 H6        -172.7247   -58.8959   104.5579 H6            1 RES     
   12641 H6        -171.4680   -57.8850   105.4258 H6            1 RES     
   12642 H6        -173.0036   -59.9613   106.7465 H6            1 RES     
   12643 H6        -170.6169   -58.9905   108.1908 H6            1 RES     
   12644 H6        -171.6005   -57.6314   107.8963 H6            1 RES     
   12645 H6        -173.6285   -58.9697   108.8286 H6            1 RES     
   12646 H6        -172.4411   -60.2822   109.2049 H6            1 RES     
   12647 H6        -171.2269   -58.5987   110.7383 H6            1 RES     
   12648 H6        -172.5292   -57.4098   110.3387 H6            1 RES     
   12649 H6        -172.8616   -60.1751   111.6878 H6            1 RES     
   12650 H6        -174.2419   -59.1201   111.1911 H6            1 RES     
   12651 H6        -172.0799   -58.3165   113.2420 H6            1 RES     
   12652 H6        -173.5000   -57.3289   112.7152 H6            1 RES     
   12653 H6        -175.0499   -59.1266   113.5636 H6            1 RES     
   12654 H6        -173.6176   -60.0800   114.1194 H6            1 RES     
   12655 H6        -173.9828   -58.4782   114.8640 H6            1 RES     
   12656 H6        -171.4297   -60.6587   105.0506 H6            1 RES     
   12657 H6        -170.1420   -59.5502   105.5929 H6            1 RES     
   12658 H6        -170.9079   -62.1465   107.0811 H6            1 RES     
   12659 H6        -169.7373   -61.8926   105.7676 H6            1 RES     
   12660 H6        -168.4942   -60.1668   107.1709 H6            1 RES     
   12661 H6        -169.3810   -60.8148   108.6049 H6            1 RES     
   12662 H6        -168.4090   -63.1591   107.9487 H6            1 RES     
   12663 H6        -167.6207   -62.3433   106.5699 H6            1 RES     
   12664 H6        -166.4074   -60.8205   108.2310 H6            1 RES     
   12665 H6        -166.9560   -61.9468   109.5205 H6            1 RES     
   12666 H6        -164.6308   -62.3941   108.7355 H6            1 RES     
   12667 H6        -165.1799   -62.5114   107.0299 H6            1 RES     
   12668 H6        -166.4312   -64.6019   107.5424 H6            1 RES     
   12669 H6        -165.9309   -64.4903   109.2785 H6            1 RES     
   12670 H6        -163.5238   -64.6622   108.5932 H6            1 RES     
   12671 H6        -164.0149   -64.7503   106.8570 H6            1 RES     
   12672 H6        -164.4744   -66.0702   107.9936 H6            1 RES     
   12673 H6        -172.7303   -54.9866   104.2646 H6            1 RES     
   12674 H6        -171.5037   -55.7395   105.2707 H6            1 RES     
   12675 H6        -170.6064   -55.3835   103.2244 H6            1 RES     
   12676 H6        -170.9254   -58.4515   103.3546 H6            1 RES     
   12677 H6        -169.8197   -57.3728   104.3564 H6            1 RES     
   12678 H6        -169.5471   -58.0216   101.4235 H6            1 RES     
   12679 H6        -168.5702   -56.8046   102.3962 H6            1 RES     
   12680 H6        -167.3512   -58.7870   102.0954 H6            1 RES     
   12681 H6        -167.8068   -58.7670   103.8335 H6            1 RES     
   12682 H6        -169.3411   -60.2915   101.6043 H6            1 RES     
   12683 H6        -169.5533   -60.5332   103.3700 H6            1 RES     
   12684 H6        -167.0274   -61.0991   101.6405 H6            1 RES     
   12685 H6        -168.2218   -62.3338   102.1683 H6            1 RES     
   12686 H6        -166.1828   -62.4042   103.5563 H6            1 RES     
   12687 H6        -167.6524   -61.9753   104.4966 H6            1 RES     
   12688 H6        -166.4347   -60.6983   104.0807 H6            1 RES     
   12689 H6        -172.3624   -57.1257   101.3857 H6            1 RES     
   12690 H6        -172.6098   -55.3603   101.6646 H6            1 RES     
   12691 H6        -170.4665   -54.6871   101.1102 H6            1 RES     
   12692 H6        -169.8944   -56.2461   100.5855 H6            1 RES     
   12693 H6        -170.2386   -54.6390    98.9488 H6            1 RES     
   12694 H6        -172.0049   -54.6442    99.0652 H6            1 RES     
   12695 H6        -172.0305   -56.9175    97.9920 H6            1 RES     
   12696 H6        -170.2878   -57.1771    98.3800 H6            1 RES     
   12697 H6        -169.5319   -55.3672    96.9731 H6            1 RES     
   12698 H6        -171.2094   -54.9442    96.4648 H6            1 RES     
   12699 H6        -171.3764   -57.0581    95.1965 H6            1 RES     
   12700 H6        -169.7737   -57.6141    95.8268 H6            1 RES     
   12701 H6        -168.6163   -55.6881    94.7792 H6            1 RES     
   12702 H6        -170.1776   -55.0350    94.1586 H6            1 RES     
   12703 H6        -170.4543   -57.0328    92.7034 H6            1 RES     
   12704 H6        -168.9016   -57.7243    93.3399 H6            1 RES     
   12705 H6        -168.8924   -56.1913    92.3943 H6            1 RES     
   12706 C0        -171.3475   -49.6864   114.9217 C0            1 RES     
   12707 C1        -172.5851   -49.1117   115.0047 C1            1 RES     
   12708 C1        -173.5660   -49.9907   115.2909 C1            1 RES     
   12709 C1        -173.1140   -51.2036   115.3621 C1            1 RES     
   12710 C1        -171.6660   -51.2271   115.0907 C1            1 RES     
   12711 C1        -171.7879   -52.0618   113.8247 C1            1 RES     
   12712 C1        -172.9566   -52.7416   113.6374 C1            1 RES     
   12713 S2        -174.0853   -52.6399   115.0678 S2            1 RES     
   12714 C1        -173.3129   -53.4605   112.3428 C1            1 RES     
   12715 C1        -172.3192   -53.7621   111.3655 C1            1 RES     
   12716 N3        -172.6333   -54.3840   110.1921 N3            1 RES     
   12717 C1        -173.8969   -54.7361   109.8652 C1            1 RES     
   12718 C1        -174.9233   -54.4551   110.7583 C1            1 RES     
   12719 C1        -174.6344   -53.8225   112.0057 C1            1 RES     
   12720 N3        -175.7249   -53.5892   112.7892 N3            1 RES     
   12721 S2        -176.9692   -54.1936   111.8776 S2            1 RES     
   12722 N3        -176.2237   -54.7464   110.5114 N3            1 RES     
   12723 S2        -175.0990   -49.3194   115.2691 S2            1 RES     
   12724 C1        -174.4981   -47.7843   114.8820 C1            1 RES     
   12725 C1        -173.1075   -47.8372   114.7278 C1            1 RES     
   12726 C0        -170.4551   -49.0293   116.0820 C0            1 RES     
   12727 C0        -170.5219   -48.0919   117.3902 C0            1 RES     
   12728 C0        -171.2572   -46.7246   117.2247 C0            1 RES     
   12729 C0        -172.4254   -46.5954   118.2205 C0            1 RES     
   12730 C0        -173.3135   -45.3586   117.9945 C0            1 RES     
   12731 C0        -174.3710   -45.2763   119.1119 C0            1 RES     
   12732 C0        -175.4253   -44.1910   118.8606 C0            1 RES     
   12733 C0        -176.4243   -44.1337   120.0187 C0            1 RES     
   12734 C0        -168.9987   -47.8515   117.7911 C0            1 RES     
   12735 C0        -168.4610   -46.9988   118.9829 C0            1 RES     
   12736 C0        -168.3302   -45.4597   118.7680 C0            1 RES     
   12737 C0        -167.1819   -44.8564   119.6341 C0            1 RES     
   12738 C0        -166.9394   -43.3537   119.3821 C0            1 RES     
   12739 C0        -165.5366   -42.8555   119.8172 C0            1 RES     
   12740 C0        -165.1907   -43.0561   121.2998 C0            1 RES     
   12741 C0        -163.8011   -42.4846   121.6132 C0            1 RES     
   12742 C0        -170.5357   -49.2616   113.6050 C0            1 RES     
   12743 C0        -168.9590   -49.5568   113.2684 C0            1 RES     
   12744 C0        -167.9674   -48.9092   114.3163 C0            1 RES     
   12745 C0        -166.4830   -48.8151   113.9782 C0            1 RES     
   12746 C0        -165.6241   -48.0250   114.9820 C0            1 RES     
   12747 C0        -165.3981   -48.7775   116.3097 C0            1 RES     
   12748 C0        -164.1640   -48.2587   117.0697 C0            1 RES     
   12749 C0        -164.3108   -46.8367   117.5828 C0            1 RES     
   12750 C0        -168.5043   -51.0091   112.7861 C0            1 RES     
   12751 C0        -167.3196   -50.9336   111.7495 C0            1 RES     
   12752 C0        -166.7646   -52.1583   110.9712 C0            1 RES     
   12753 C0        -165.6390   -53.0274   111.6220 C0            1 RES     
   12754 C0        -164.7019   -53.5530   110.4904 C0            1 RES     
   12755 C0        -163.4950   -54.4200   110.9099 C0            1 RES     
   12756 C0        -162.5605   -54.6153   109.6894 C0            1 RES     
   12757 C0        -161.3572   -55.5121   109.9767 C0            1 RES     
   12758 H4        -171.0367   -52.0415   113.0794 H4            1 RES     
   12759 H5        -171.2820   -53.5250   111.5383 H5            1 RES     
   12760 H4        -172.5333   -46.9840   114.4031 H4            1 RES     
   12761 H6        -169.8574   -49.8981   116.4317 H6            1 RES     
   12762 H6        -169.8839   -48.2853   115.5642 H6            1 RES     
   12763 H6        -171.0009   -48.6657   118.2139 H6            1 RES     
   12764 H6        -170.5764   -45.8669   117.3708 H6            1 RES     
   12765 H6        -171.5844   -46.5857   116.2009 H6            1 RES     
   12766 H6        -173.0795   -47.4905   118.1294 H6            1 RES     
   12767 H6        -171.9964   -46.5667   119.2465 H6            1 RES     
   12768 H6        -172.7087   -44.4251   117.9952 H6            1 RES     
   12769 H6        -173.8121   -45.4602   117.0053 H6            1 RES     
   12770 H6        -173.8517   -45.0756   120.0759 H6            1 RES     
   12771 H6        -174.9008   -46.2507   119.1905 H6            1 RES     
   12772 H6        -174.9435   -43.1960   118.7507 H6            1 RES     
   12773 H6        -175.9771   -44.4283   117.9246 H6            1 RES     
   12774 H6        -176.9173   -45.1202   120.1587 H6            1 RES     
   12775 H6        -175.9055   -43.8544   120.9610 H6            1 RES     
   12776 H6        -177.2078   -43.3757   119.8083 H6            1 RES     
   12777 H6        -168.6044   -48.8735   117.9833 H6            1 RES     
   12778 H6        -168.4457   -47.4589   116.9088 H6            1 RES     
   12779 H6        -168.9358   -47.2536   119.9517 H6            1 RES     
   12780 H6        -167.4063   -47.3485   119.0508 H6            1 RES     
   12781 H6        -168.0342   -45.2742   117.7107 H6            1 RES     
   12782 H6        -169.2939   -44.9469   118.9632 H6            1 RES     
   12783 H6        -167.3481   -45.0364   120.7172 H6            1 RES     
   12784 H6        -166.2528   -45.3716   119.3474 H6            1 RES     
   12785 H6        -166.9847   -43.1597   118.2880 H6            1 RES     
   12786 H6        -167.7432   -42.7615   119.8687 H6            1 RES     
   12787 H6        -165.4723   -41.7704   119.5800 H6            1 RES     
   12788 H6        -164.7672   -43.3789   119.2062 H6            1 RES     
   12789 H6        -165.1849   -44.1404   121.5396 H6            1 RES     
   12790 H6        -165.9406   -42.5445   121.9381 H6            1 RES     
   12791 H6        -163.7751   -41.3912   121.4147 H6            1 RES     
   12792 H6        -163.0216   -42.9779   120.9927 H6            1 RES     
   12793 H6        -163.5527   -42.6513   122.6829 H6            1 RES     
   12794 H6        -171.1230   -49.6209   112.7316 H6            1 RES     
   12795 H6        -170.6049   -48.1515   113.5417 H6            1 RES     
   12796 H6        -168.8549   -48.9443   112.3466 H6            1 RES     
   12797 H6        -168.0262   -49.4563   115.2762 H6            1 RES     
   12798 H6        -168.2655   -47.8439   114.4202 H6            1 RES     
   12799 H6        -166.0380   -49.8256   113.9631 H6            1 RES     
   12800 H6        -166.4003   -48.3055   112.9938 H6            1 RES     
   12801 H6        -164.6332   -47.9261   114.4902 H6            1 RES     
   12802 H6        -166.0242   -47.0005   115.1514 H6            1 RES     
   12803 H6        -165.1679   -49.8389   116.0775 H6            1 RES     
   12804 H6        -166.3093   -48.7584   116.9439 H6            1 RES     
   12805 H6        -163.2755   -48.3160   116.4039 H6            1 RES     
   12806 H6        -163.9783   -48.9201   117.9436 H6            1 RES     
   12807 H6        -163.3783   -46.5320   118.1048 H6            1 RES     
   12808 H6        -165.1398   -46.8237   118.3046 H6            1 RES     
   12809 H6        -164.5048   -46.1187   116.7599 H6            1 RES     
   12810 H6        -168.3124   -51.6849   113.6481 H6            1 RES     
   12811 H6        -169.3072   -51.4360   112.1635 H6            1 RES     
   12812 H6        -167.7180   -50.2658   110.9555 H6            1 RES     
   12813 H6        -166.4217   -50.4397   112.1055 H6            1 RES     
   12814 H6        -166.2516   -51.6416   110.1290 H6            1 RES     
   12815 H6        -167.5553   -52.7795   110.5018 H6            1 RES     
   12816 H6        -166.0771   -53.8463   112.2330 H6            1 RES     
   12817 H6        -165.0014   -52.3987   112.2812 H6            1 RES     
   12818 H6        -164.2782   -52.6516   109.9922 H6            1 RES     
   12819 H6        -165.2948   -54.1193   109.7403 H6            1 RES     
   12820 H6        -163.8545   -55.4028   111.2841 H6            1 RES     
   12821 H6        -162.9160   -53.9164   111.7143 H6            1 RES     
   12822 H6        -162.1753   -53.6216   109.3667 H6            1 RES     
   12823 H6        -163.1267   -55.0602   108.8428 H6            1 RES     
   12824 H6        -161.6914   -56.5380   110.2362 H6            1 RES     
   12825 H6        -160.7415   -55.0988   110.8025 H6            1 RES     
   12826 H6        -160.7208   -55.5737   109.0652 H6            1 RES     
   12827 C0        -178.6435   -40.4124   111.2409 C0            1 RES     
   12828 C1        -179.7711   -41.1362   110.9699 C1            1 RES     
   12829 C1        -180.3079   -41.7202   112.0596 C1            1 RES     
   12830 C1        -179.5884   -41.5092   113.1172 C1            1 RES     
   12831 C1        -178.4016   -40.7052   112.7769 C1            1 RES     
   12832 C1        -177.4030   -41.7955   113.1350 C1            1 RES     
   12833 C1        -177.8541   -42.8214   113.9142 C1            1 RES     
   12834 S2        -179.5572   -42.5698   114.5198 S2            1 RES     
   12835 C1        -177.0445   -44.0796   114.1994 C1            1 RES     
   12836 C1        -175.6398   -44.1268   113.9580 C1            1 RES     
   12837 N3        -174.9108   -45.2573   114.1875 N3            1 RES     
   12838 C1        -175.4635   -46.4071   114.6347 C1            1 RES     
   12839 C1        -176.8318   -46.4450   114.8723 C1            1 RES     
   12840 C1        -177.6278   -45.2778   114.6629 C1            1 RES     
   12841 N3        -178.9562   -45.4439   114.9188 N3            1 RES     
   12842 S2        -179.0440   -47.0284   115.3945 S2            1 RES     
   12843 N3        -177.4818   -47.5556   115.2976 N3            1 RES     
   12844 S2        -181.6133   -42.7105   111.7187 S2            1 RES     
   12845 C1        -181.5222   -42.3787   110.0607 C1            1 RES     
   12846 C1        -180.4364   -41.5345   109.7983 C1            1 RES     
   12847 C0        -178.9735   -38.8873   110.8670 C0            1 RES     
   12848 C0        -180.1678   -37.8844   110.4639 C0            1 RES     
   12849 C0        -181.0843   -38.3388   109.2844 C0            1 RES     
   12850 C0        -182.5586   -38.4205   109.7234 C0            1 RES     
   12851 C0        -183.4967   -39.0399   108.6718 C0            1 RES     
   12852 C0        -184.9510   -38.9644   109.1749 C0            1 RES     
   12853 C0        -185.9339   -39.7357   108.2852 C0            1 RES     
   12854 C0        -187.3629   -39.5939   108.8144 C0            1 RES     
   12855 C0        -179.4377   -36.5166   110.0968 C0            1 RES     
   12856 C0        -180.1069   -35.1895   109.6194 C0            1 RES     
   12857 C0        -180.4514   -35.0594   108.1039 C0            1 RES     
   12858 C0        -180.4023   -33.5738   107.6315 C0            1 RES     
   12859 C0        -180.6324   -33.3975   106.1161 C0            1 RES     
   12860 C0        -180.1026   -32.0561   105.5455 C0            1 RES     
   12861 C0        -180.6957   -30.7865   106.1735 C0            1 RES     
   12862 C0        -180.1275   -29.5318   105.4963 C0            1 RES     
   12863 C0        -177.4258   -40.7360   110.2481 C0            1 RES     
   12864 C0        -176.0089   -39.9236   110.1119 C0            1 RES     
   12865 C0        -176.1971   -38.4111   109.6899 C0            1 RES     
   12866 C0        -174.9873   -37.6148   109.2117 C0            1 RES     
   12867 C0        -175.2937   -36.2076   108.6681 C0            1 RES     
   12868 C0        -175.6721   -35.2003   109.7737 C0            1 RES     
   12869 C0        -175.4669   -33.7415   109.3267 C0            1 RES     
   12870 C0        -176.4084   -33.2994   108.2199 C0            1 RES     
   12871 C0        -174.8600   -40.1350   111.2000 C0            1 RES     
   12872 C0        -173.4245   -40.0452   110.5555 C0            1 RES     
   12873 C0        -172.1081   -40.3696   111.3141 C0            1 RES     
   12874 C0        -171.4000   -39.2374   112.1281 C0            1 RES     
   12875 C0        -169.8576   -39.4618   112.0508 C0            1 RES     
   12876 C0        -168.9517   -38.4381   112.7688 C0            1 RES     
   12877 C0        -167.4786   -38.6861   112.3573 C0            1 RES     
   12878 C0        -166.4832   -37.7627   113.0581 C0            1 RES     
   12879 H4        -176.4286   -41.8048   112.7216 H4            1 RES     
   12880 H5        -175.1084   -43.2576   113.6061 H5            1 RES     
   12881 H4        -180.1508   -41.2621   108.7946 H4            1 RES     
   12882 H6        -178.4498   -38.3343   111.6759 H6            1 RES     
   12883 H6        -178.5313   -38.7683   109.8984 H6            1 RES     
   12884 H6        -180.7957   -37.7007   111.3633 H6            1 RES     
   12885 H6        -181.0143   -37.6571   108.4180 H6            1 RES     
   12886 H6        -180.7365   -39.2766   108.8669 H6            1 RES     
   12887 H6        -182.6298   -39.0494   110.6381 H6            1 RES     
   12888 H6        -182.8983   -37.3900   109.9684 H6            1 RES     
   12889 H6        -183.4188   -38.5047   107.6999 H6            1 RES     
   12890 H6        -183.2014   -40.1016   108.5194 H6            1 RES     
   12891 H6        -185.2530   -37.8941   109.2236 H6            1 RES     
   12892 H6        -185.0101   -39.3965   110.1977 H6            1 RES     
   12893 H6        -185.8967   -39.3564   107.2416 H6            1 RES     
   12894 H6        -185.6581   -40.8131   108.2859 H6            1 RES     
   12895 H6        -187.4295   -39.9584   109.8625 H6            1 RES     
   12896 H6        -187.6810   -38.5295   108.7833 H6            1 RES     
   12897 H6        -188.0610   -40.1899   108.1898 H6            1 RES     
   12898 H6        -178.9032   -36.2354   111.0306 H6            1 RES     
   12899 H6        -178.6552   -36.7137   109.3304 H6            1 RES     
   12900 H6        -180.9386   -34.8596   110.2739 H6            1 RES     
   12901 H6        -179.2826   -34.4565   109.7688 H6            1 RES     
   12902 H6        -179.6648   -35.5846   107.5162 H6            1 RES     
   12903 H6        -181.4335   -35.5219   107.8774 H6            1 RES     
   12904 H6        -181.1159   -32.9399   108.1989 H6            1 RES     
   12905 H6        -179.3873   -33.2007   107.8352 H6            1 RES     
   12906 H6        -180.0650   -34.1835   105.5713 H6            1 RES     
   12907 H6        -181.7108   -33.5319   105.8865 H6            1 RES     
   12908 H6        -180.3124   -32.0446   104.4530 H6            1 RES     
   12909 H6        -178.9975   -32.0253   105.6756 H6            1 RES     
   12910 H6        -180.4388   -30.7476   107.2532 H6            1 RES     
   12911 H6        -181.7997   -30.7858   106.0601 H6            1 RES     
   12912 H6        -180.3909   -29.5182   104.4164 H6            1 RES     
   12913 H6        -179.0206   -29.4970   105.5935 H6            1 RES     
   12914 H6        -180.5482   -28.6193   105.9698 H6            1 RES     
   12915 H6        -177.1684   -41.8087   110.3892 H6            1 RES     
   12916 H6        -177.8447   -40.6899   109.2169 H6            1 RES     
   12917 H6        -175.5970   -40.4312   109.2129 H6            1 RES     
   12918 H6        -176.6249   -37.8368   110.5334 H6            1 RES     
   12919 H6        -176.8619   -38.4096   108.7997 H6            1 RES     
   12920 H6        -174.2945   -37.4447   110.0546 H6            1 RES     
   12921 H6        -174.5140   -38.1948   108.3901 H6            1 RES     
   12922 H6        -174.3363   -35.8609   108.2245 H6            1 RES     
   12923 H6        -176.0549   -36.2350   107.8568 H6            1 RES     
   12924 H6        -174.9776   -35.3396   110.6290 H6            1 RES     
   12925 H6        -176.7047   -35.3758   110.1424 H6            1 RES     
   12926 H6        -174.4168   -33.6091   108.9866 H6            1 RES     
   12927 H6        -175.6290   -33.0738   110.2005 H6            1 RES     
   12928 H6        -176.1892   -32.2453   107.9447 H6            1 RES     
   12929 H6        -177.4349   -33.3564   108.6090 H6            1 RES     
   12930 H6        -176.3044   -33.9294   107.3129 H6            1 RES     
   12931 H6        -175.0051   -39.4732   112.0819 H6            1 RES     
   12932 H6        -174.8820   -41.1864   111.5292 H6            1 RES     
   12933 H6        -173.4625   -40.8022   109.7427 H6            1 RES     
   12934 H6        -173.1975   -39.1095   110.0557 H6            1 RES     
   12935 H6        -171.4239   -40.5501   110.4545 H6            1 RES     
   12936 H6        -172.1438   -41.3279   111.8724 H6            1 RES     
   12937 H6        -171.7787   -39.2076   113.1729 H6            1 RES     
   12938 H6        -171.5903   -38.2488   111.6563 H6            1 RES     
   12939 H6        -169.5886   -39.4109   110.9714 H6            1 RES     
   12940 H6        -169.6034   -40.4766   112.4258 H6            1 RES     
   12941 H6        -169.0700   -38.5431   113.8688 H6            1 RES     
   12942 H6        -169.2259   -37.4022   112.4728 H6            1 RES     
   12943 H6        -167.3780   -38.5253   111.2600 H6            1 RES     
   12944 H6        -167.1913   -39.7359   112.5824 H6            1 RES     
   12945 H6        -166.4975   -37.9373   114.1539 H6            1 RES     
   12946 H6        -166.7116   -36.6975   112.8457 H6            1 RES     
   12947 H6        -165.4571   -37.9799   112.6846 H6            1 RES     
   12948 C0        -184.9054   -46.9114   102.7946 C0            1 RES     
   12949 C1        -185.2603   -47.9740   103.5779 C1            1 RES     
   12950 C1        -186.0881   -47.6419   104.5885 C1            1 RES     
   12951 C1        -186.3113   -46.3654   104.6225 C1            1 RES     
   12952 C1        -185.5699   -45.6871   103.5451 C1            1 RES     
   12953 C1        -184.6896   -44.8789   104.4864 C1            1 RES     
   12954 C1        -185.1041   -44.7643   105.7818 C1            1 RES     
   12955 S2        -186.7582   -45.4779   106.0737 S2            1 RES     
   12956 C1        -184.2493   -44.1595   106.8878 C1            1 RES     
   12957 C1        -183.1023   -43.3670   106.5878 C1            1 RES     
   12958 N3        -182.3167   -42.8416   107.5722 N3            1 RES     
   12959 C1        -182.5531   -43.0491   108.8869 C1            1 RES     
   12960 C1        -183.6409   -43.8299   109.2573 C1            1 RES     
   12961 C1        -184.4992   -44.3826   108.2585 C1            1 RES     
   12962 N3        -185.5230   -45.1388   108.7459 N3            1 RES     
   12963 S2        -185.2917   -45.0592   110.3844 S2            1 RES     
   12964 N3        -183.9462   -44.1151   110.5466 N3            1 RES     
   12965 S2        -186.4261   -48.9106   105.6265 S2            1 RES     
   12966 C1        -185.4685   -49.9868   104.7365 C1            1 RES     
   12967 C1        -184.8602   -49.3178   103.6674 C1            1 RES     
   12968 C0        -185.4691   -47.2144   101.3232 C0            1 RES     
   12969 C0        -186.4264   -48.2008   100.4834 C0            1 RES     
   12970 C0        -186.1763   -49.7308   100.6685 C0            1 RES     
   12971 C0        -187.4455   -50.4469   101.1679 C0            1 RES     
   12972 C0        -187.2281   -51.9214   101.5527 C0            1 RES     
   12973 C0        -188.5805   -52.5582   101.9255 C0            1 RES     
   12974 C0        -188.4376   -53.9674   102.5139 C0            1 RES     
   12975 C0        -189.8129   -54.5600   102.8299 C0            1 RES     
   12976 C0        -186.1956   -47.7865    98.9623 C0            1 RES     
   12977 C0        -186.8600   -48.4224    97.7009 C0            1 RES     
   12978 C0        -186.2197   -49.7232    97.1263 C0            1 RES     
   12979 C0        -186.4436   -49.8396    95.5871 C0            1 RES     
   12980 C0        -185.7406   -51.0556    94.9488 C0            1 RES     
   12981 C0        -185.5152   -50.9278    93.4196 C0            1 RES     
   12982 C0        -186.7828   -50.7313    92.5754 C0            1 RES     
   12983 C0        -186.4333   -50.6638    91.0824 C0            1 RES     
   12984 C0        -183.3266   -46.8177   102.5266 C0            1 RES     
   12985 C0        -182.5526   -45.8341   101.4685 C0            1 RES     
   12986 C0        -182.9831   -46.0750    99.9660 C0            1 RES     
   12987 C0        -182.1383   -45.4801    98.8440 C0            1 RES     
   12988 C0        -182.5380   -45.9025    97.4188 C0            1 RES     
   12989 C0        -183.8516   -45.2504    96.9398 C0            1 RES     
   12990 C0        -183.9721   -45.2441    95.4051 C0            1 RES     
   12991 C0        -184.1146   -46.6273    94.7939 C0            1 RES     
   12992 C0        -182.3388   -44.2921   101.8222 C0            1 RES     
   12993 C0        -180.9738   -43.7482   101.2523 C0            1 RES     
   12994 C0        -180.3992   -42.3393   101.5661 C0            1 RES     
   12995 C0        -180.8208   -41.1285   100.6705 C0            1 RES     
   12996 C0        -179.6130   -40.1463   100.5642 C0            1 RES     
   12997 C0        -179.7975   -38.8809    99.6987 C0            1 RES     
   12998 C0        -178.4244   -38.1875    99.5126 C0            1 RES     
   12999 C0        -178.4989   -36.8850    98.7171 C0            1 RES     
   13000 H4        -183.7519   -44.5014   104.1724 H4            1 RES     
   13001 H5        -182.8358   -43.1416   105.5680 H5            1 RES     
   13002 H4        -184.1459   -49.8011   103.0199 H4            1 RES     
   13003 H6        -185.8029   -46.2073   100.9934 H6            1 RES     
   13004 H6        -184.6104   -47.5838   100.7999 H6            1 RES     
   13005 H6        -187.4843   -47.9711   100.7387 H6            1 RES     
   13006 H6        -185.8477   -50.2140    99.7310 H6            1 RES     
   13007 H6        -185.3316   -49.9054   101.3246 H6            1 RES     
   13008 H6        -187.8240   -49.9235   102.0734 H6            1 RES     
   13009 H6        -188.2131   -50.3779   100.3656 H6            1 RES     
   13010 H6        -186.7752   -52.4926   100.7125 H6            1 RES     
   13011 H6        -186.5368   -51.9589   102.4235 H6            1 RES     
   13012 H6        -189.2160   -52.5980   101.0125 H6            1 RES     
   13013 H6        -189.0894   -51.9248   102.6845 H6            1 RES     
   13014 H6        -187.9118   -54.6374   101.8004 H6            1 RES     
   13015 H6        -187.8480   -53.9115   103.4553 H6            1 RES     
   13016 H6        -190.3674   -53.9053   103.5368 H6            1 RES     
   13017 H6        -190.4085   -54.6685   101.8980 H6            1 RES     
   13018 H6        -189.6980   -55.5617   103.2948 H6            1 RES     
   13019 H6        -186.4982   -46.7170    98.9236 H6            1 RES     
   13020 H6        -185.1064   -47.8164    98.7361 H6            1 RES     
   13021 H6        -187.9640   -48.4896    97.7755 H6            1 RES     
   13022 H6        -186.6459   -47.6547    96.9237 H6            1 RES     
   13023 H6        -185.1162   -49.6642    97.2627 H6            1 RES     
   13024 H6        -186.5966   -50.6209    97.6572 H6            1 RES     
   13025 H6        -187.5238   -49.8491    95.3301 H6            1 RES     
   13026 H6        -185.9968   -48.9466    95.1247 H6            1 RES     
   13027 H6        -184.7203   -51.1501    95.3809 H6            1 RES     
   13028 H6        -186.3038   -51.9809    95.1944 H6            1 RES     
   13029 H6        -184.9964   -51.8493    93.0740 H6            1 RES     
   13030 H6        -184.8340   -50.0680    93.2305 H6            1 RES     
   13031 H6        -187.2794   -49.7801    92.8614 H6            1 RES     
   13032 H6        -187.4849   -51.5745    92.7410 H6            1 RES     
   13033 H6        -185.9604   -51.6129    90.7492 H6            1 RES     
   13034 H6        -185.7322   -49.8255    90.8780 H6            1 RES     
   13035 H6        -187.3539   -50.5028    90.4822 H6            1 RES     
   13036 H6        -182.8377   -46.6738   103.5151 H6            1 RES     
   13037 H6        -183.0042   -47.8357   102.2089 H6            1 RES     
   13038 H6        -181.5265   -46.2534   101.5518 H6            1 RES     
   13039 H6        -184.0108   -45.6980    99.8052 H6            1 RES     
   13040 H6        -182.9026   -47.1680    99.7833 H6            1 RES     
   13041 H6        -182.2335   -44.3799    98.8472 H6            1 RES     
   13042 H6        -181.0900   -45.8109    99.0091 H6            1 RES     
   13043 H6        -181.7250   -45.5136    96.7698 H6            1 RES     
   13044 H6        -182.5626   -47.0095    97.3078 H6            1 RES     
   13045 H6        -183.8392   -44.1790    97.2319 H6            1 RES     
   13046 H6        -184.7345   -45.7231    97.4194 H6            1 RES     
   13047 H6        -183.0787   -44.7444    94.9716 H6            1 RES     
   13048 H6        -184.8672   -44.6502    95.1193 H6            1 RES     
   13049 H6        -184.1814   -46.5397    93.6881 H6            1 RES     
   13050 H6        -185.0494   -47.0664    95.1703 H6            1 RES     
   13051 H6        -183.2536   -47.2802    95.0444 H6            1 RES     
   13052 H6        -183.2247   -43.6814   101.5415 H6            1 RES     
   13053 H6        -182.1682   -44.2046   102.9074 H6            1 RES     
   13054 H6        -180.2229   -44.4481   101.6783 H6            1 RES     
   13055 H6        -180.8537   -43.8300   100.1772 H6            1 RES     
   13056 H6        -179.3276   -42.5013   101.3111 H6            1 RES     
   13057 H6        -180.4130   -42.0864   102.6465 H6            1 RES     
   13058 H6        -181.7369   -40.6424   101.0709 H6            1 RES     
   13059 H6        -181.0291   -41.4721    99.6337 H6            1 RES     
   13060 H6        -178.7820   -40.7228   100.0978 H6            1 RES     
   13061 H6        -179.2909   -39.8308   101.5799 H6            1 RES     
   13062 H6        -180.5157   -38.1924   100.1939 H6            1 RES     
   13063 H6        -180.1896   -39.1513    98.6942 H6            1 RES     
   13064 H6        -177.7408   -38.8792    98.9702 H6            1 RES     
   13065 H6        -177.9745   -37.9602   100.5032 H6            1 RES     
   13066 H6        -179.1162   -36.1364    99.2557 H6            1 RES     
   13067 H6        -178.9211   -37.0605    97.7058 H6            1 RES     
   13068 H6        -177.4728   -36.4694    98.5987 H6            1 RES     
   13069 C0        -181.7073   -58.0662   107.0526 C0            1 RES     
   13070 C1        -182.0437   -57.8867   108.3654 C1            1 RES     
   13071 C1        -183.3640   -57.6972   108.5592 C1            1 RES     
   13072 C1        -184.0116   -57.6673   107.4366 C1            1 RES     
   13073 C1        -183.0832   -57.8374   106.3053 C1            1 RES     
   13074 C1        -183.3430   -56.4576   105.7196 C1            1 RES     
   13075 C1        -184.4690   -55.8072   106.1344 C1            1 RES     
   13076 S2        -185.5406   -56.8313   107.1989 S2            1 RES     
   13077 C1        -184.7726   -54.3532   105.7972 C1            1 RES     
   13078 C1        -184.0794   -53.6753   104.7515 C1            1 RES     
   13079 N3        -184.3276   -52.3657   104.4586 N3            1 RES     
   13080 C1        -185.2221   -51.6188   105.1436 C1            1 RES     
   13081 C1        -185.9214   -52.2043   106.1916 C1            1 RES     
   13082 C1        -185.7052   -53.5777   106.5182 C1            1 RES     
   13083 N3        -186.4405   -54.0327   107.5717 N3            1 RES     
   13084 S2        -187.3125   -52.6961   108.0163 S2            1 RES     
   13085 N3        -186.8199   -51.5329   106.9524 N3            1 RES     
   13086 S2        -183.7687   -57.3505   110.1458 S2            1 RES     
   13087 C1        -182.1571   -57.4577   110.6545 C1            1 RES     
   13088 C1        -181.3234   -57.7150   109.5594 C1            1 RES     
   13089 C0        -181.0876   -59.5414   106.9328 C0            1 RES     
   13090 C0        -180.8780   -60.9243   107.7317 C0            1 RES     
   13091 C0        -180.2526   -60.8115   109.1577 C0            1 RES     
   13092 C0        -181.1815   -61.4223   110.2240 C0            1 RES     
   13093 C0        -180.7218   -61.1829   111.6734 C0            1 RES     
   13094 C0        -181.6605   -61.9315   112.6388 C0            1 RES     
   13095 C0        -181.4017   -61.5903   114.1116 C0            1 RES     
   13096 C0        -182.3379   -62.3895   115.0210 C0            1 RES     
   13097 C0        -179.9371   -61.7961   106.7865 C0            1 RES     
   13098 C0        -179.3937   -63.2330   107.0639 C0            1 RES     
   13099 C0        -178.1145   -63.3629   107.9464 C0            1 RES     
   13100 C0        -177.2845   -64.6282   107.5683 C0            1 RES     
   13101 C0        -175.9536   -64.7495   108.3392 C0            1 RES     
   13102 C0        -174.9059   -65.6668   107.6562 C0            1 RES     
   13103 C0        -175.3466   -67.1190   107.4217 C0            1 RES     
   13104 C0        -174.2122   -67.9322   106.7835 C0            1 RES     
   13105 C0        -180.4744   -57.1546   106.5813 C0            1 RES     
   13106 C0        -179.6476   -57.2502   105.1693 C0            1 RES     
   13107 C0        -178.9386   -58.6478   104.9570 C0            1 RES     
   13108 C0        -177.8799   -58.7885   103.8680 C0            1 RES     
   13109 C0        -177.1299   -60.1325   103.8435 C0            1 RES     
   13110 C0        -177.9946   -61.2993   103.3229 C0            1 RES     
   13111 C0        -177.1405   -62.4747   102.8142 C0            1 RES     
   13112 C0        -176.3553   -63.1817   103.9054 C0            1 RES     
   13113 C0        -180.2836   -56.6574   103.8305 C0            1 RES     
   13114 C0        -179.1810   -56.0521   102.8808 C0            1 RES     
   13115 C0        -179.4914   -55.2552   101.5838 C0            1 RES     
   13116 C0        -179.6835   -56.0325   100.2405 C0            1 RES     
   13117 C0        -179.1365   -55.1507    99.0750 C0            1 RES     
   13118 C0        -179.2015   -55.7360    97.6476 C0            1 RES     
   13119 C0        -178.3837   -54.8331    96.6901 C0            1 RES     
   13120 C0        -178.4284   -55.2878    95.2320 C0            1 RES     
   13121 H4        -182.6345   -55.9862   105.0902 H4            1 RES     
   13122 H5        -183.3512   -54.1891   104.1453 H5            1 RES     
   13123 H4        -180.2492   -57.7432   109.6501 H4            1 RES     
   13124 H6        -181.4901   -59.8806   105.9543 H6            1 RES     
   13125 H6        -180.0306   -59.3671   106.9343 H6            1 RES     
   13126 H6        -181.8585   -61.4445   107.8040 H6            1 RES     
   13127 H6        -179.2701   -61.3127   109.2209 H6            1 RES     
   13128 H6        -180.0001   -59.7826   109.3862 H6            1 RES     
   13129 H6        -182.1941   -60.9734   110.1222 H6            1 RES     
   13130 H6        -181.2516   -62.5152   110.0284 H6            1 RES     
   13131 H6        -179.6797   -61.5399   111.8278 H6            1 RES     
   13132 H6        -180.7586   -60.0899   111.8776 H6            1 RES     
   13133 H6        -181.5303   -63.0256   112.4810 H6            1 RES     
   13134 H6        -182.7150   -61.6631   112.4098 H6            1 RES     
   13135 H6        -180.3499   -61.8191   114.3868 H6            1 RES     
   13136 H6        -181.5874   -60.5056   114.2728 H6            1 RES     
   13137 H6        -183.4001   -62.1872   114.7630 H6            1 RES     
   13138 H6        -182.1429   -63.4782   114.9126 H6            1 RES     
   13139 H6        -182.1732   -62.1047   116.0815 H6            1 RES     
   13140 H6        -180.5193   -61.8986   105.8445 H6            1 RES     
   13141 H6        -179.0264   -61.2085   106.5343 H6            1 RES     
   13142 H6        -180.1862   -63.9509   107.3564 H6            1 RES     
   13143 H6        -179.0508   -63.5423   106.0510 H6            1 RES     
   13144 H6        -177.4487   -62.4961   107.7337 H6            1 RES     
   13145 H6        -178.3722   -63.3577   109.0249 H6            1 RES     
   13146 H6        -177.8783   -65.5587   107.6897 H6            1 RES     
   13147 H6        -177.0181   -64.5370   106.5046 H6            1 RES     
   13148 H6        -175.4706   -63.7489   108.3846 H6            1 RES     
   13149 H6        -176.1565   -65.0797   109.3801 H6            1 RES     
   13150 H6        -173.9917   -65.6700   108.2903 H6            1 RES     
   13151 H6        -174.6310   -65.2232   106.6729 H6            1 RES     
   13152 H6        -176.2198   -67.1392   106.7357 H6            1 RES     
   13153 H6        -175.6279   -67.5917   108.3855 H6            1 RES     
   13154 H6        -173.3274   -67.9619   107.4558 H6            1 RES     
   13155 H6        -173.9060   -67.4885   105.8112 H6            1 RES     
   13156 H6        -174.5470   -68.9755   106.6008 H6            1 RES     
   13157 H6        -180.7917   -56.0950   106.6963 H6            1 RES     
   13158 H6        -179.6790   -57.2858   107.3503 H6            1 RES     
   13159 H6        -178.8271   -56.5346   105.3934 H6            1 RES     
   13160 H6        -179.6972   -59.4249   104.7455 H6            1 RES     
   13161 H6        -178.3674   -58.8592   105.8862 H6            1 RES     
   13162 H6        -178.3541   -58.7142   102.8735 H6            1 RES     
   13163 H6        -177.1266   -57.9883   104.0345 H6            1 RES     
   13164 H6        -176.3074   -59.9843   103.1121 H6            1 RES     
   13165 H6        -176.6708   -60.3673   104.8297 H6            1 RES     
   13166 H6        -178.5601   -60.9485   102.4338 H6            1 RES     
   13167 H6        -178.7313   -61.6269   104.0865 H6            1 RES     
   13168 H6        -176.4347   -62.1036   102.0396 H6            1 RES     
   13169 H6        -177.8098   -63.2221   102.3356 H6            1 RES     
   13170 H6        -175.7565   -64.0043   103.4587 H6            1 RES     
   13171 H6        -177.0774   -63.6145   104.6124 H6            1 RES     
   13172 H6        -175.6665   -62.4904   104.4326 H6            1 RES     
   13173 H6        -180.9558   -57.3928   103.3365 H6            1 RES     
   13174 H6        -180.8619   -55.7558   104.0897 H6            1 RES     
   13175 H6        -178.6594   -55.3178   103.5318 H6            1 RES     
   13176 H6        -178.4080   -56.7450   102.5659 H6            1 RES     
   13177 H6        -178.5265   -54.7169   101.4468 H6            1 RES     
   13178 H6        -180.2565   -54.4637   101.7234 H6            1 RES     
   13179 H6        -180.7483   -56.3192   100.1000 H6            1 RES     
   13180 H6        -179.0669   -56.9577   100.2408 H6            1 RES     
   13181 H6        -178.0574   -54.9811    99.2920 H6            1 RES     
   13182 H6        -179.6504   -54.1654    99.0722 H6            1 RES     
   13183 H6        -180.2608   -55.7932    97.3164 H6            1 RES     
   13184 H6        -178.7601   -56.7560    97.6256 H6            1 RES     
   13185 H6        -177.3185   -54.8338    97.0145 H6            1 RES     
   13186 H6        -178.7603   -53.7884    96.7363 H6            1 RES     
   13187 H6        -179.4658   -55.2369    94.8415 H6            1 RES     
   13188 H6        -178.0387   -56.3216    95.1259 H6            1 RES     
   13189 H6        -177.7920   -54.6112    94.6180 H6            1 RES     
   13190 C0        -177.9694   -54.2227   118.1901 C0            1 RES     
   13191 C1        -179.0753   -53.4977   118.5366 C1            1 RES     
   13192 C1        -180.1866   -54.2480   118.6737 C1            1 RES     
   13193 C1        -179.9621   -55.4910   118.3821 C1            1 RES     
   13194 C1        -178.5571   -55.6766   117.9791 C1            1 RES     
   13195 C1        -178.8884   -56.1003   116.5561 C1            1 RES     
   13196 C1        -180.1694   -56.5012   116.3081 C1            1 RES     
   13197 S2        -181.1931   -56.6117   117.8149 S2            1 RES     
   13198 C1        -180.7110   -56.7688   114.9100 C1            1 RES     
   13199 C1        -179.8356   -56.9497   113.7988 C1            1 RES     
   13200 N3        -180.3123   -57.1656   112.5385 N3            1 RES     
   13201 C1        -181.6328   -57.2021   112.2512 C1            1 RES     
   13202 C1        -182.5479   -57.0123   113.2791 C1            1 RES     
   13203 C1        -182.0905   -56.8024   114.6157 C1            1 RES     
   13204 N3        -183.0824   -56.6171   115.5320 N3            1 RES     
   13205 S2        -184.4571   -56.7354   114.6151 S2            1 RES     
   13206 N3        -183.8896   -57.0070   113.0881 N3            1 RES     
   13207 S2        -181.5697   -53.3542   118.9726 S2            1 RES     
   13208 C1        -180.7159   -51.8922   118.9461 C1            1 RES     
   13209 C1        -179.3671   -52.1284   118.6533 C1            1 RES     
   13210 C0        -176.9189   -54.0648   119.3926 C0            1 RES     
   13211 C0        -176.7522   -53.5244   120.9009 C0            1 RES     
   13212 C0        -177.2309   -52.0627   121.1689 C0            1 RES     
   13213 C0        -178.3084   -52.0217   122.2691 C0            1 RES     
   13214 C0        -178.9638   -50.6419   122.4593 C0            1 RES     
   13215 C0        -179.9355   -50.6967   123.6536 C0            1 RES     
   13216 C0        -180.7833   -49.4264   123.7954 C0            1 RES     
   13217 C0        -181.7002   -49.5257   125.0167 C0            1 RES     
   13218 C0        -175.1939   -53.6568   121.2056 C0            1 RES     
   13219 C0        -174.4544   -53.2640   122.5230 C0            1 RES     
   13220 C0        -174.0535   -51.7681   122.7071 C0            1 RES     
   13221 C0        -172.7752   -51.6226   123.5889 C0            1 RES     
   13222 C0        -172.2730   -50.1694   123.7173 C0            1 RES     
   13223 C0        -170.7840   -50.0470   124.1337 C0            1 RES     
   13224 C0        -170.4127   -50.7005   125.4728 C0            1 RES     
   13225 C0        -168.9289   -50.4731   125.7927 C0            1 RES     
   13226 C0        -177.1551   -53.5924   116.9601 C0            1 RES     
   13227 C0        -175.6766   -54.0387   116.4112 C0            1 RES     
   13228 C0        -174.5356   -53.8753   117.4941 C0            1 RES     
   13229 C0        -173.0764   -53.9371   117.0543 C0            1 RES     
   13230 C0        -172.0417   -53.6048   118.1444 C0            1 RES     
   13231 C0        -171.8966   -54.7191   119.2016 C0            1 RES     
   13232 C0        -170.5545   -54.6386   119.9514 C0            1 RES     
   13233 C0        -170.4141   -53.4078   120.8302 C0            1 RES     
   13234 C0        -175.5189   -55.3572   115.5251 C0            1 RES     
   13235 C0        -174.3895   -55.1959   114.4377 C0            1 RES     
   13236 C0        -174.1053   -56.2340   113.3174 C0            1 RES     
   13237 C0        -173.1294   -57.4208   113.6092 C0            1 RES     
   13238 C0        -172.3579   -57.7624   112.2965 C0            1 RES     
   13239 C0        -171.3126   -58.8971   112.3590 C0            1 RES     
   13240 C0        -170.4871   -58.9009   111.0477 C0            1 RES     
   13241 C0        -169.4570   -60.0270   110.9758 C0            1 RES     
   13242 H4        -178.1814   -56.0000   115.7748 H4            1 RES     
   13243 H5        -178.7657   -56.9427   113.9293 H5            1 RES     
   13244 H4        -178.6618   -51.3252   118.5108 H4            1 RES     
   13245 H6        -176.4753   -55.0821   119.4449 H6            1 RES     
   13246 H6        -176.2455   -53.3116   119.0363 H6            1 RES     
   13247 H6        -177.2898   -54.2154   121.5869 H6            1 RES     
   13248 H6        -176.3983   -51.4019   121.4696 H6            1 RES     
   13249 H6        -177.5740   -51.5967   120.2526 H6            1 RES     
   13250 H6        -179.1191   -52.7374   122.0088 H6            1 RES     
   13251 H6        -177.8345   -52.3463   123.2217 H6            1 RES     
   13252 H6        -178.1986   -49.8569   122.6474 H6            1 RES     
   13253 H6        -179.5178   -50.3850   121.5294 H6            1 RES     
   13254 H6        -179.3444   -50.8562   124.5832 H6            1 RES     
   13255 H6        -180.6310   -51.5546   123.5239 H6            1 RES     
   13256 H6        -180.1326   -48.5325   123.9050 H6            1 RES     
   13257 H6        -181.4118   -49.3039   122.8861 H6            1 RES     
   13258 H6        -182.3589   -50.4178   124.9394 H6            1 RES     
   13259 H6        -181.0961   -49.6046   125.9462 H6            1 RES     
   13260 H6        -182.3401   -48.6210   125.0868 H6            1 RES     
   13261 H6        -174.9854   -54.7426   121.0857 H6            1 RES     
   13262 H6        -174.6196   -53.1336   120.4088 H6            1 RES     
   13263 H6        -174.9227   -53.6931   123.4316 H6            1 RES     
   13264 H6        -173.4798   -53.7871   122.3975 H6            1 RES     
   13265 H6        -173.7775   -51.3510   121.7122 H6            1 RES     
   13266 H6        -174.8966   -51.1775   123.1194 H6            1 RES     
   13267 H6        -172.9214   -52.0629   124.5978 H6            1 RES     
   13268 H6        -171.9706   -52.1846   123.0913 H6            1 RES     
   13269 H6        -172.3323   -49.6781   122.7214 H6            1 RES     
   13270 H6        -172.9311   -49.6097   124.4153 H6            1 RES     
   13271 H6        -170.5326   -48.9643   124.1838 H6            1 RES     
   13272 H6        -170.1528   -50.5017   123.3375 H6            1 RES     
   13273 H6        -170.5949   -51.7946   125.4188 H6            1 RES     
   13274 H6        -171.0257   -50.2677   126.2904 H6            1 RES     
   13275 H6        -168.7119   -49.3869   125.8857 H6            1 RES     
   13276 H6        -168.2826   -50.8984   124.9943 H6            1 RES     
   13277 H6        -168.6662   -50.9652   126.7532 H6            1 RES     
   13278 H6        -177.8380   -53.5969   116.0824 H6            1 RES     
   13279 H6        -177.0223   -52.5118   117.1964 H6            1 RES     
   13280 H6        -175.5044   -53.2226   115.6764 H6            1 RES     
   13281 H6        -174.6496   -54.6473   118.2784 H6            1 RES     
   13282 H6        -174.6281   -52.8455   117.9007 H6            1 RES     
   13283 H6        -172.8256   -54.9635   116.7335 H6            1 RES     
   13284 H6        -172.9472   -53.1979   116.2343 H6            1 RES     
   13285 H6        -171.0733   -53.5389   117.6048 H6            1 RES     
   13286 H6        -172.2388   -52.6149   118.6130 H6            1 RES     
   13287 H6        -171.8761   -55.6989   118.6791 H6            1 RES     
   13288 H6        -172.7587   -54.7253   119.9015 H6            1 RES     
   13289 H6        -169.7234   -54.6562   119.2132 H6            1 RES     
   13290 H6        -170.4533   -55.5354   120.6002 H6            1 RES     
   13291 H6        -169.4184   -53.4154   121.3237 H6            1 RES     
   13292 H6        -171.1924   -53.4574   121.6049 H6            1 RES     
   13293 H6        -170.5108   -52.4699   120.2459 H6            1 RES     
   13294 H6        -175.4147   -56.2655   116.1582 H6            1 RES     
   13295 H6        -176.4144   -55.4591   114.8908 H6            1 RES     
   13296 H6        -174.6948   -54.2800   113.8873 H6            1 RES     
   13297 H6        -173.4008   -54.9730   114.8245 H6            1 RES     
   13298 H6        -173.5455   -55.5977   112.5954 H6            1 RES     
   13299 H6        -175.0173   -56.5641   112.7783 H6            1 RES     
   13300 H6        -173.6817   -58.2924   114.0230 H6            1 RES     
   13301 H6        -172.3575   -57.1106   114.3470 H6            1 RES     
   13302 H6        -171.7994   -56.8412   112.0141 H6            1 RES     
   13303 H6        -173.0787   -57.9959   111.4835 H6            1 RES     
   13304 H6        -171.8287   -59.8719   112.4951 H6            1 RES     
   13305 H6        -170.6145   -58.7357   113.2090 H6            1 RES     
   13306 H6        -169.9414   -57.9341   110.9616 H6            1 RES     
   13307 H6        -171.1639   -58.9972   110.1713 H6            1 RES     
   13308 H6        -169.9614   -61.0154   110.9880 H6            1 RES     
   13309 H6        -168.7384   -59.9630   111.8193 H6            1 RES     
   13310 H6        -168.8854   -59.9399   110.0243 H6            1 RES     
   13311 C0        -183.6015   -43.2278   117.7679 C0            1 RES     
   13312 C1        -184.8540   -43.6541   117.4242 C1            1 RES     
   13313 C1        -185.4380   -44.4182   118.3687 C1            1 RES     
   13314 C1        -184.6440   -44.6264   119.3720 C1            1 RES     
   13315 C1        -183.3468   -43.9662   119.1440 C1            1 RES     
   13316 C1        -182.5498   -45.2615   119.1087 C1            1 RES     
   13317 C1        -183.1451   -46.3732   119.6310 C1            1 RES     
   13318 S2        -184.7433   -46.0212   120.4388 S2            1 RES     
   13319 C1        -182.5678   -47.7765   119.4996 C1            1 RES     
   13320 C1        -181.2083   -47.9857   119.1232 C1            1 RES     
   13321 N3        -180.6893   -49.2396   118.9792 N3            1 RES     
   13322 C1        -181.4225   -50.3609   119.1598 C1            1 RES     
   13323 C1        -182.7621   -50.2373   119.5068 C1            1 RES     
   13324 C1        -183.3391   -48.9432   119.6861 C1            1 RES     
   13325 N3        -184.6621   -48.9527   120.0133 N3            1 RES     
   13326 S2        -185.0172   -50.5701   120.0638 S2            1 RES     
   13327 N3        -183.5844   -51.2996   119.6858 N3            1 RES     
   13328 S2        -186.9173   -45.0487   117.9047 S2            1 RES     
   13329 C1        -186.8435   -44.2946   116.3904 C1            1 RES     
   13330 C1        -185.6345   -43.6010   116.2572 C1            1 RES     
   13331 C0        -183.6628   -41.6260   117.8390 C0            1 RES     
   13332 C0        -184.6701   -40.3691   117.8266 C0            1 RES     
   13333 C0        -185.7079   -40.3257   116.6609 C0            1 RES     
   13334 C0        -187.1503   -40.2814   117.1998 C0            1 RES     
   13335 C0        -188.2337   -40.4258   116.1159 C0            1 RES     
   13336 C0        -189.6246   -40.2534   116.7557 C0            1 RES     
   13337 C0        -190.7723   -40.5788   115.7917 C0            1 RES     
   13338 C0        -192.1251   -40.3550   116.4715 C0            1 RES     
   13339 C0        -183.7192   -39.0922   117.7633 C0            1 RES     
   13340 C0        -184.1548   -37.5940   117.7150 C0            1 RES     
   13341 C0        -184.5390   -36.9984   116.3258 C0            1 RES     
   13342 C0        -184.2400   -35.4693   116.2562 C0            1 RES     
   13343 C0        -184.5035   -34.8488   114.8684 C0            1 RES     
   13344 C0        -183.7634   -33.5084   114.6215 C0            1 RES     
   13345 C0        -184.0839   -32.3802   115.6128 C0            1 RES     
   13346 C0        -183.3270   -31.0989   115.2373 C0            1 RES     
   13347 C0        -182.5110   -43.4621   116.6151 C0            1 RES     
   13348 C0        -180.9768   -42.8876   116.5636 C0            1 RES     
   13349 C0        -180.9035   -41.3079   116.5718 C0            1 RES     
   13350 C0        -179.5915   -40.6208   116.2071 C0            1 RES     
   13351 C0        -179.6592   -39.0880   116.0820 C0            1 RES     
   13352 C0        -179.7950   -38.3747   117.4433 C0            1 RES     
   13353 C0        -179.3464   -36.9035   117.3764 C0            1 RES     
   13354 C0        -180.2408   -36.0264   116.5175 C0            1 RES     
   13355 C0        -179.8373   -43.5749   117.4454 C0            1 RES     
   13356 C0        -178.4410   -43.5489   116.7149 C0            1 RES     
   13357 C0        -177.1729   -44.2804   117.2347 C0            1 RES     
   13358 C0        -176.2322   -43.5472   118.2464 C0            1 RES     
   13359 C0        -174.7625   -43.9919   117.9684 C0            1 RES     
   13360 C0        -173.6520   -43.3675   118.8407 C0            1 RES     
   13361 C0        -172.2700   -43.7315   118.2420 C0            1 RES     
   13362 C0        -171.0908   -43.2122   119.0632 C0            1 RES     
   13363 H4        -181.6138   -45.3169   118.6175 H4            1 RES     
   13364 H5        -180.5433   -47.1529   118.9627 H5            1 RES     
   13365 H4        -185.3504   -43.1145   115.3376 H4            1 RES     
   13366 H6        -183.0098   -41.4098   118.7114 H6            1 RES     
   13367 H6        -183.2515   -41.3202   116.8982 H6            1 RES     
   13368 H6        -185.2115   -40.3385   118.7977 H6            1 RES     
   13369 H6        -185.5541   -39.4535   116.0005 H6            1 RES     
   13370 H6        -185.5578   -41.1568   115.9817 H6            1 RES     
   13371 H6        -187.2934   -41.1164   117.9206 H6            1 RES     
   13372 H6        -187.2834   -39.3163   117.7369 H6            1 RES     
   13373 H6        -188.1037   -39.6649   115.3151 H6            1 RES     
   13374 H6        -188.1455   -41.4385   115.6639 H6            1 RES     
   13375 H6        -189.7224   -39.2031   117.1110 H6            1 RES     
   13376 H6        -189.7147   -40.9337   117.6306 H6            1 RES     
   13377 H6        -190.7144   -39.9393   114.8850 H6            1 RES     
   13378 H6        -190.6993   -41.6452   115.4844 H6            1 RES     
   13379 H6        -192.2090   -40.9769   117.3891 H6            1 RES     
   13380 H6        -192.2435   -39.2857   116.7502 H6            1 RES     
   13381 H6        -192.9488   -40.6338   115.7812 H6            1 RES     
   13382 H6        -183.0996   -39.1696   118.6836 H6            1 RES     
   13383 H6        -183.0224   -39.1972   116.9020 H6            1 RES     
   13384 H6        -184.8807   -37.3242   118.5082 H6            1 RES     
   13385 H6        -183.2039   -37.0757   117.9729 H6            1 RES     
   13386 H6        -183.8902   -37.4640   115.5498 H6            1 RES     
   13387 H6        -185.5987   -37.2133   116.0796 H6            1 RES     
   13388 H6        -184.7982   -34.9070   117.0342 H6            1 RES     
   13389 H6        -183.1655   -35.3383   116.4540 H6            1 RES     
   13390 H6        -184.1158   -35.5374   114.0859 H6            1 RES     
   13391 H6        -185.5977   -34.7362   114.7141 H6            1 RES     
   13392 H6        -184.0178   -33.1633   113.5948 H6            1 RES     
   13393 H6        -182.6667   -33.6963   114.6506 H6            1 RES     
   13394 H6        -183.7747   -32.6816   116.6359 H6            1 RES     
   13395 H6        -185.1730   -32.1672   115.6079 H6            1 RES     
   13396 H6        -183.6328   -30.7466   114.2283 H6            1 RES     
   13397 H6        -182.2291   -31.2743   115.2356 H6            1 RES     
   13398 H6        -183.5507   -30.2951   115.9705 H6            1 RES     
   13399 H6        -182.4485   -44.5595   116.4457 H6            1 RES     
   13400 H6        -182.9615   -43.0667   115.6760 H6            1 RES     
   13401 H6        -180.7070   -43.1897   115.5285 H6            1 RES     
   13402 H6        -181.1793   -40.9248   117.5725 H6            1 RES     
   13403 H6        -181.5971   -40.9531   115.7797 H6            1 RES     
   13404 H6        -178.8411   -40.8046   116.9961 H6            1 RES     
   13405 H6        -179.2712   -41.0227   115.2216 H6            1 RES     
   13406 H6        -178.6760   -38.7951   115.6567 H6            1 RES     
   13407 H6        -180.4492   -38.7665   115.3672 H6            1 RES     
   13408 H6        -179.0991   -38.8553   118.1631 H6            1 RES     
   13409 H6        -180.8240   -38.4725   117.8487 H6            1 RES     
   13410 H6        -178.3066   -36.8572   116.9856 H6            1 RES     
   13411 H6        -179.3427   -36.4839   118.4057 H6            1 RES     
   13412 H6        -179.8447   -34.9882   116.5084 H6            1 RES     
   13413 H6        -181.2413   -36.0186   116.9730 H6            1 RES     
   13414 H6        -180.2961   -36.3918   115.4717 H6            1 RES     
   13415 H6        -179.8176   -43.1659   118.4793 H6            1 RES     
   13416 H6        -180.0367   -44.6579   117.4885 H6            1 RES     
   13417 H6        -178.6547   -44.0370   115.7396 H6            1 RES     
   13418 H6        -178.0694   -42.5625   116.4583 H6            1 RES     
   13419 H6        -176.5738   -44.3281   116.2975 H6            1 RES     
   13420 H6        -177.3581   -45.3357   117.5236 H6            1 RES     
   13421 H6        -176.5504   -43.7433   119.2934 H6            1 RES     
   13422 H6        -176.2595   -42.4498   118.0698 H6            1 RES     
   13423 H6        -174.5388   -43.6918   116.9195 H6            1 RES     
   13424 H6        -174.6818   -45.0980   118.0390 H6            1 RES     
   13425 H6        -173.7366   -43.7493   119.8810 H6            1 RES     
   13426 H6        -173.7447   -42.2597   118.8533 H6            1 RES     
   13427 H6        -172.1923   -43.2947   117.2207 H6            1 RES     
   13428 H6        -172.1701   -44.8352   118.1565 H6            1 RES     
   13429 H6        -171.0862   -43.6759   120.0714 H6            1 RES     
   13430 H6        -171.1293   -42.1072   119.1594 H6            1 RES     
   13431 H6        -170.1402   -43.4841   118.5511 H6            1 RES     
   13432 C0        -191.3327   -46.0411   108.5429 C0            1 RES     
   13433 C1        -191.8401   -47.2045   109.0506 C1            1 RES     
   13434 C1        -192.5453   -47.0311   110.1861 C1            1 RES     
   13435 C1        -192.5287   -45.7943   110.5738 C1            1 RES     
   13436 C1        -191.7259   -44.9777   109.6467 C1            1 RES     
   13437 C1        -190.6697   -44.6147   110.6796 C1            1 RES     
   13438 C1        -190.9959   -44.7933   111.9929 C1            1 RES     
   13439 S2        -192.7376   -45.2779   112.2421 S2            1 RES     
   13440 C1        -189.9945   -44.6640   113.1332 C1            1 RES     
   13441 C1        -188.7367   -44.0191   112.9445 C1            1 RES     
   13442 N3        -187.8234   -43.9202   113.9536 N3            1 RES     
   13443 C1        -188.0329   -44.4386   115.1844 C1            1 RES     
   13444 C1        -189.2273   -45.1014   115.4382 C1            1 RES     
   13445 C1        -190.2176   -45.2102   114.4149 C1            1 RES     
   13446 N3        -191.3392   -45.8923   114.7814 N3            1 RES     
   13447 S2        -191.0218   -46.3042   116.3543 S2            1 RES     
   13448 N3        -189.5200   -45.6751   116.6307 N3            1 RES     
   13449 S2        -193.0621   -48.4624   110.8829 S2            1 RES     
   13450 C1        -192.3604   -49.3953   109.6562 C1            1 RES     
   13451 C1        -191.6897   -48.5680   108.7471 C1            1 RES     
   13452 C0        -192.0097   -45.8321   107.1033 C0            1 RES     
   13453 C0        -193.1695   -46.3793   106.1284 C0            1 RES     
   13454 C0        -193.1962   -47.9208   105.8823 C0            1 RES     
   13455 C0        -194.5508   -48.5279   106.2939 C0            1 RES     
   13456 C0        -194.5901   -50.0663   106.2572 C0            1 RES     
   13457 C0        -196.0178   -50.5499   106.5758 C0            1 RES     
   13458 C0        -196.1090   -52.0700   106.7588 C0            1 RES     
   13459 C0        -197.5535   -52.4923   107.0366 C0            1 RES     
   13460 C0        -192.9370   -45.6074   104.7541 C0            1 RES     
   13461 C0        -193.7643   -45.7549   103.4385 C0            1 RES     
   13462 C0        -193.4009   -46.9351   102.4859 C0            1 RES     
   13463 C0        -193.7131   -46.5864   100.9981 C0            1 RES     
   13464 C0        -193.2754   -47.6790   100.0005 C0            1 RES     
   13465 C0        -193.1012   -47.1755    98.5439 C0            1 RES     
   13466 C0        -194.3487   -46.5496    97.9037 C0            1 RES     
   13467 C0        -194.0620   -46.1336    96.4544 C0            1 RES     
   13468 C0        -189.7776   -46.1381   108.1615 C0            1 RES     
   13469 C0        -188.8858   -45.0430   107.3297 C0            1 RES     
   13470 C0        -189.4222   -44.7885   105.8639 C0            1 RES     
   13471 C0        -188.5352   -44.0558   104.8625 C0            1 RES     
   13472 C0        -189.0710   -43.9996   103.4206 C0            1 RES     
   13473 C0        -190.2633   -43.0346   103.2547 C0            1 RES     
   13474 C0        -190.4513   -42.5879   101.7935 C0            1 RES     
   13475 C0        -190.8732   -43.7075   100.8578 C0            1 RES     
   13476 C0        -188.3766   -43.7140   108.0530 C0            1 RES     
   13477 C0        -186.9627   -43.2665   107.5195 C0            1 RES     
   13478 C0        -186.1255   -42.1119   108.1357 C0            1 RES     
   13479 C0        -186.3587   -40.6498   107.6319 C0            1 RES     
   13480 C0        -184.9972   -39.8883   107.6733 C0            1 RES     
   13481 C0        -184.9862   -38.4217   107.1904 C0            1 RES     
   13482 C0        -183.5192   -37.9390   107.0641 C0            1 RES     
   13483 C0        -183.3901   -36.4745   106.6478 C0            1 RES     
   13484 H4        -189.6942   -44.3248   110.3886 H4            1 RES     
   13485 H5        -188.4806   -43.5696   111.9989 H5            1 RES     
   13486 H4        -191.1068   -48.9657   107.9316 H4            1 RES     
   13487 H6        -192.1679   -44.7326   107.0815 H6            1 RES     
   13488 H6        -191.2584   -46.1796   106.4232 H6            1 RES     
   13489 H6        -194.1543   -46.0579   106.5333 H6            1 RES     
   13490 H6        -193.0055   -48.1755   104.8244 H6            1 RES     
   13491 H6        -192.3685   -48.4049   106.3874 H6            1 RES     
   13492 H6        -194.7846   -48.2181   107.3363 H6            1 RES     
   13493 H6        -195.3289   -48.1164   105.6136 H6            1 RES     
   13494 H6        -194.2890   -50.4514   105.2581 H6            1 RES     
   13495 H6        -193.8780   -50.4541   107.0188 H6            1 RES     
   13496 H6        -196.6913   -50.2328   105.7482 H6            1 RES     
   13497 H6        -196.3663   -50.0743   107.5186 H6            1 RES     
   13498 H6        -195.7485   -52.5955   105.8486 H6            1 RES     
   13499 H6        -195.4763   -52.3720   107.6222 H6            1 RES     
   13500 H6        -197.9452   -51.9748   107.9390 H6            1 RES     
   13501 H6        -198.2013   -52.2417   106.1691 H6            1 RES     
   13502 H6        -197.6031   -53.5878   107.2101 H6            1 RES     
   13503 H6        -193.0396   -44.5338   105.0253 H6            1 RES     
   13504 H6        -191.8834   -45.7526   104.4266 H6            1 RES     
   13505 H6        -194.8572   -45.6577   103.5965 H6            1 RES     
   13506 H6        -193.4490   -44.8496   102.8728 H6            1 RES     
   13507 H6        -192.3001   -47.0978   102.5286 H6            1 RES     
   13508 H6        -193.9112   -47.8693   102.7963 H6            1 RES     
   13509 H6        -194.7874   -46.3475   100.8502 H6            1 RES     
   13510 H6        -193.1318   -45.6869   100.7455 H6            1 RES     
   13511 H6        -192.2709   -48.0546   100.2949 H6            1 RES     
   13512 H6        -193.9868   -48.5306   100.0472 H6            1 RES     
   13513 H6        -192.7768   -48.0391    97.9220 H6            1 RES     
   13514 H6        -192.2832   -46.4208    98.5232 H6            1 RES     
   13515 H6        -194.6486   -45.6452    98.4741 H6            1 RES     
   13516 H6        -195.1853   -47.2788    97.9081 H6            1 RES     
   13517 H6        -193.7873   -47.0192    95.8414 H6            1 RES     
   13518 H6        -193.2292   -45.3984    96.4114 H6            1 RES     
   13519 H6        -194.9642   -45.6652    96.0066 H6            1 RES     
   13520 H6        -189.2254   -46.3531   109.1026 H6            1 RES     
   13521 H6        -189.6625   -47.0685   107.5596 H6            1 RES     
   13522 H6        -187.9514   -45.6316   107.2035 H6            1 RES     
   13523 H6        -190.3695   -44.2184   105.9048 H6            1 RES     
   13524 H6        -189.5521   -45.7873   105.3949 H6            1 RES     
   13525 H6        -188.4267   -42.9986   105.1625 H6            1 RES     
   13526 H6        -187.5590   -44.5867   104.8359 H6            1 RES     
   13527 H6        -188.2312   -43.5866   102.8225 H6            1 RES     
   13528 H6        -189.3034   -45.0140   103.0265 H6            1 RES     
   13529 H6        -190.0410   -42.1015   103.8145 H6            1 RES     
   13530 H6        -191.1948   -43.4690   103.6747 H6            1 RES     
   13531 H6        -189.5022   -42.1422   101.4239 H6            1 RES     
   13532 H6        -191.2344   -41.7998   101.7586 H6            1 RES     
   13533 H6        -190.9738   -43.3103    99.8248 H6            1 RES     
   13534 H6        -191.8544   -44.0734   101.1924 H6            1 RES     
   13535 H6        -190.1361   -44.5363   100.8466 H6            1 RES     
   13536 H6        -189.1474   -42.9129   108.0265 H6            1 RES     
   13537 H6        -188.1430   -43.9567   109.1023 H6            1 RES     
   13538 H6        -186.3343   -44.1697   107.6749 H6            1 RES     
   13539 H6        -186.9095   -43.0689   106.4542 H6            1 RES     
   13540 H6        -185.1148   -42.3715   107.7475 H6            1 RES     
   13541 H6        -186.0428   -42.1664   109.2409 H6            1 RES     
   13542 H6        -187.1505   -40.1486   108.2300 H6            1 RES     
   13543 H6        -186.6741   -40.6568   106.5657 H6            1 RES     
   13544 H6        -184.3086   -40.4430   106.9963 H6            1 RES     
   13545 H6        -184.5763   -39.9208   108.7012 H6            1 RES     
   13546 H6        -185.5422   -37.7871   107.9139 H6            1 RES     
   13547 H6        -185.4671   -38.3379   106.1917 H6            1 RES     
   13548 H6        -183.0000   -38.5579   106.2978 H6            1 RES     
   13549 H6        -182.9900   -38.0692   108.0328 H6            1 RES     
   13550 H6        -183.8339   -35.8115   107.4191 H6            1 RES     
   13551 H6        -183.8835   -36.2941   105.6702 H6            1 RES     
   13552 H6        -182.3117   -36.2166   106.5463 H6            1 RES     
   13553 C0        -190.0431   -58.3036   109.4126 C0            1 RES     
   13554 C1        -190.2798   -58.4383   110.7522 C1            1 RES     
   13555 C1        -191.5326   -58.0951   111.1122 C1            1 RES     
   13556 C1        -192.2147   -57.6525   110.1026 C1            1 RES     
   13557 C1        -191.3865   -57.6559   108.8841 C1            1 RES     
   13558 C1        -191.4155   -56.1452   108.7071 C1            1 RES     
   13559 C1        -192.3826   -55.4578   109.3816 C1            1 RES     
   13560 S2        -193.5737   -56.5442   110.2369 S2            1 RES     
   13561 C1        -192.4295   -53.9378   109.4669 C1            1 RES     
   13562 C1        -191.6726   -53.1224   108.5746 C1            1 RES     
   13563 N3        -191.6895   -51.7605   108.6593 N3            1 RES     
   13564 C1        -192.3992   -51.0938   109.5970 C1            1 RES     
   13565 C1        -193.1450   -51.8211   110.5162 C1            1 RES     
   13566 C1        -193.1696   -53.2476   110.4501 C1            1 RES     
   13567 N3        -193.9265   -53.8469   111.4121 N3            1 RES     
   13568 S2        -194.5170   -52.5592   112.2710 S2            1 RES     
   13569 N3        -193.8689   -51.2461   111.5072 N3            1 RES     
   13570 S2        -191.7931   -58.1353   112.7650 S2            1 RES     
   13571 C1        -190.2068   -58.6410   113.0740 C1            1 RES     
   13572 C1        -189.4859   -58.7214   111.8763 C1            1 RES     
   13573 C0        -189.7108   -59.7703   108.8532 C0            1 RES     
   13574 C0        -189.7219   -61.3341   109.2389 C0            1 RES     
   13575 C0        -189.0213   -61.7211   110.5794 C0            1 RES     
   13576 C0        -189.9963   -62.4397   111.5311 C0            1 RES     
   13577 C0        -189.4340   -62.6859   112.9427 C0            1 RES     
   13578 C0        -190.4486   -63.5058   113.7624 C0            1 RES     
   13579 C0        -190.0640   -63.6290   115.2421 C0            1 RES     
   13580 C0        -191.0880   -64.4820   115.9945 C0            1 RES     
   13581 C0        -189.0016   -62.0555   108.0143 C0            1 RES     
   13582 C0        -188.7189   -63.5823   107.8536 C0            1 RES     
   13583 C0        -187.4459   -64.1575   108.5469 C0            1 RES     
   13584 C0        -186.8806   -65.3890   107.7745 C0            1 RES     
   13585 C0        -185.5604   -65.9339   108.3581 C0            1 RES     
   13586 C0        -184.7315   -66.7878   107.3634 C0            1 RES     
   13587 C0        -185.4416   -68.0271   106.7995 C0            1 RES     
   13588 C0        -184.5063   -68.8090   105.8670 C0            1 RES     
   13589 C0        -188.6869   -57.5131   109.0825 C0            1 RES     
   13590 C0        -187.9577   -57.3521   107.6235 C0            1 RES     
   13591 C0        -187.5278   -58.7345   106.9870 C0            1 RES     
   13592 C0        -186.5643   -58.7431   105.8046 C0            1 RES     
   13593 C0        -186.0756   -60.1330   105.3588 C0            1 RES     
   13594 C0        -187.1629   -60.9539   104.6347 C0            1 RES     
   13595 C0        -186.5633   -62.0683   103.7581 C0            1 RES     
   13596 C0        -185.8718   -63.1664   104.5474 C0            1 RES     
   13597 C0        -188.5352   -56.3188   106.5524 C0            1 RES     
   13598 C0        -187.3852   -55.6659   105.6949 C0            1 RES     
   13599 C0        -187.6036   -54.5041   104.6869 C0            1 RES     
   13600 C0        -187.9969   -54.8407   103.2111 C0            1 RES     
   13601 C0        -187.3517   -53.7753   102.2710 C0            1 RES     
   13602 C0        -187.5888   -53.9277   100.7528 C0            1 RES     
   13603 C0        -186.6643   -52.9439    99.9925 C0            1 RES     
   13604 C0        -186.8589   -52.9675    98.4772 C0            1 RES     
   13605 H4        -190.6623   -55.6422   108.1592 H4            1 RES     
   13606 H5        -191.0799   -53.5626   107.7894 H5            1 RES     
   13607 H4        -188.4321   -58.9493   111.8551 H4            1 RES     
   13608 H6        -190.2134   -59.7572   107.8624 H6            1 RES     
   13609 H6        -188.6408   -59.7791   108.8009 H6            1 RES     
   13610 H6        -190.7768   -61.6859   109.2644 H6            1 RES     
   13611 H6        -188.1456   -62.3746   110.4164 H6            1 RES     
   13612 H6        -188.5740   -60.8503   111.0444 H6            1 RES     
   13613 H6        -190.9129   -61.8202   111.6460 H6            1 RES     
   13614 H6        -190.2747   -63.4101   111.0638 H6            1 RES     
   13615 H6        -188.4692   -63.2377   112.8996 H6            1 RES     
   13616 H6        -189.2602   -61.7002   113.4284 H6            1 RES     
   13617 H6        -190.5288   -64.5207   113.3122 H6            1 RES     
   13618 H6        -191.4454   -63.0156   113.7119 H6            1 RES     
   13619 H6        -189.0604   -64.0940   115.3476 H6            1 RES     
   13620 H6        -190.0397   -62.6150   115.6983 H6            1 RES     
   13621 H6        -192.1057   -64.0451   115.8995 H6            1 RES     
   13622 H6        -191.1013   -65.5158   115.5871 H6            1 RES     
   13623 H6        -190.8250   -64.5299   117.0721 H6            1 RES     
   13624 H6        -189.6355   -61.7987   107.1374 H6            1 RES     
   13625 H6        -188.0111   -61.5791   107.8402 H6            1 RES     
   13626 H6        -189.6153   -64.2127   108.0212 H6            1 RES     
   13627 H6        -188.4857   -63.6539   106.7675 H6            1 RES     
   13628 H6        -186.6429   -63.3872   108.5069 H6            1 RES     
   13629 H6        -187.6483   -64.4061   109.6085 H6            1 RES     
   13630 H6        -187.6288   -66.2065   107.7035 H6            1 RES     
   13631 H6        -186.6514   -65.0546   106.7516 H6            1 RES     
   13632 H6        -184.9004   -65.0775   108.6182 H6            1 RES     
   13633 H6        -185.7722   -66.4989   109.2906 H6            1 RES     
   13634 H6        -183.8051   -67.1148   107.8857 H6            1 RES     
   13635 H6        -184.4256   -66.1429   106.5092 H6            1 RES     
   13636 H6        -186.3343   -67.7147   106.2175 H6            1 RES     
   13637 H6        -185.7601   -68.6932   107.6280 H6            1 RES     
   13638 H6        -183.6120   -69.1667   106.4218 H6            1 RES     
   13639 H6        -184.1691   -68.1721   105.0204 H6            1 RES     
   13640 H6        -185.0350   -69.6924   105.4500 H6            1 RES     
   13641 H6        -188.7986   -56.4884   109.5001 H6            1 RES     
   13642 H6        -187.8944   -57.9788   109.7120 H6            1 RES     
   13643 H6        -187.0103   -56.8702   107.9489 H6            1 RES     
   13644 H6        -188.4251   -59.2884   106.6519 H6            1 RES     
   13645 H6        -186.9628   -59.2835   107.7705 H6            1 RES     
   13646 H6        -187.0622   -58.3221   104.9134 H6            1 RES     
   13647 H6        -185.6701   -58.1543   106.1031 H6            1 RES     
   13648 H6        -185.2745   -59.9271   104.6177 H6            1 RES     
   13649 H6        -185.6224   -60.7013   106.2014 H6            1 RES     
   13650 H6        -187.6947   -60.2847   103.9256 H6            1 RES     
   13651 H6        -187.9111   -61.3527   105.3517 H6            1 RES     
   13652 H6        -185.8379   -61.6201   103.0448 H6            1 RES     
   13653 H6        -187.3798   -62.5353   103.1657 H6            1 RES     
   13654 H6        -185.4553   -63.9216   103.8466 H6            1 RES     
   13655 H6        -186.6276   -63.6518   105.1811 H6            1 RES     
   13656 H6        -185.0442   -62.7690   105.1699 H6            1 RES     
   13657 H6        -189.3530   -56.7697   105.9487 H6            1 RES     
   13658 H6        -188.9256   -55.4406   107.0918 H6            1 RES     
   13659 H6        -186.7082   -55.2343   106.4634 H6            1 RES     
   13660 H6        -186.7679   -56.3630   105.1384 H6            1 RES     
   13661 H6        -186.5637   -54.1148   104.6054 H6            1 RES     
   13662 H6        -188.2032   -53.6668   105.1000 H6            1 RES     
   13663 H6        -189.1016   -54.8989   103.1013 H6            1 RES     
   13664 H6        -187.5612   -55.8187   102.9113 H6            1 RES     
   13665 H6        -186.2510   -53.8513   102.4223 H6            1 RES     
   13666 H6        -187.6756   -52.7566   102.5745 H6            1 RES     
   13667 H6        -188.6548   -53.7171   100.5194 H6            1 RES     
   13668 H6        -187.3436   -54.9607   100.4232 H6            1 RES     
   13669 H6        -185.6035   -53.2084   100.2038 H6            1 RES     
   13670 H6        -186.8402   -51.9048   100.3457 H6            1 RES     
   13671 H6        -187.8863   -52.6418    98.2130 H6            1 RES     
   13672 H6        -186.6709   -53.9820    98.0680 H6            1 RES     
   13673 H6        -186.1382   -52.2625    98.0046 H6            1 RES     
   13674 C0        -185.1533   -58.3301   120.7650 C0            1 RES     
   13675 C1        -186.0902   -57.5566   121.3917 C1            1 RES     
   13676 C1        -187.3128   -58.1226   121.4315 C1            1 RES     
   13677 C1        -187.3339   -59.2573   120.8050 C1            1 RES     
   13678 C1        -186.0070   -59.5533   120.2372 C1            1 RES     
   13679 C1        -186.4757   -59.5101   118.7905 C1            1 RES     
   13680 C1        -187.8185   -59.6116   118.5680 C1            1 RES     
   13681 S2        -188.7745   -59.9615   120.0826 S2            1 RES     
   13682 C1        -188.4640   -59.3928   117.2058 C1            1 RES     
   13683 C1        -187.6889   -59.4032   116.0089 C1            1 RES     
   13684 N3        -188.2548   -59.1839   114.7866 N3            1 RES     
   13685 C1        -189.5713   -58.9228   114.6253 C1            1 RES     
   13686 C1        -190.3877   -58.8746   115.7484 C1            1 RES     
   13687 C1        -189.8384   -59.1174   117.0442 C1            1 RES     
   13688 N3        -190.7360   -59.0303   118.0661 N3            1 RES     
   13689 S2        -192.1500   -58.6652   117.2837 S2            1 RES     
   13690 N3        -191.7130   -58.5969   115.6924 N3            1 RES     
   13691 S2        -188.4931   -57.1306   122.0827 S2            1 RES     
   13692 C1        -187.3876   -55.8782   122.3595 C1            1 RES     
   13693 C1        -186.1201   -56.2432   121.8897 C1            1 RES     
   13694 C0        -184.0374   -58.6828   121.8627 C0            1 RES     
   13695 C0        -183.7049   -58.6118   123.4372 C0            1 RES     
   13696 C0        -183.8943   -57.2217   124.1223 C0            1 RES     
   13697 C0        -184.8940   -57.3075   125.2911 C0            1 RES     
   13698 C0        -185.2757   -55.9447   125.8965 C0            1 RES     
   13699 C0        -186.1848   -56.1646   127.1208 C0            1 RES     
   13700 C0        -186.7775   -54.8607   127.6693 C0            1 RES     
   13701 C0        -187.6397   -55.1391   128.9027 C0            1 RES     
   13702 C0        -182.1850   -59.0766   123.5487 C0            1 RES     
   13703 C0        -181.3259   -59.1871   124.8474 C0            1 RES     
   13704 C0        -180.6492   -57.8861   125.3780 C0            1 RES     
   13705 C0        -179.3267   -58.1999   126.1429 C0            1 RES     
   13706 C0        -178.5609   -56.9407   126.5993 C0            1 RES     
   13707 C0        -177.0572   -57.1834   126.8912 C0            1 RES     
   13708 C0        -176.7507   -58.2308   127.9716 C0            1 RES     
   13709 C0        -175.2373   -58.3468   128.1988 C0            1 RES     
   13710 C0        -184.2948   -57.5292   119.6720 C0            1 RES     
   13711 C0        -182.9503   -58.0443   118.8889 C0            1 RES     
   13712 C0        -181.7500   -58.3739   119.8645 C0            1 RES     
   13713 C0        -180.3488   -58.5514   119.2886 C0            1 RES     
   13714 C0        -179.2215   -58.7055   120.3254 C0            1 RES     
   13715 C0        -179.2347   -60.0750   121.0356 C0            1 RES     
   13716 C0        -177.8675   -60.4248   121.6506 C0            1 RES     
   13717 C0        -177.4631   -59.5226   122.8037 C0            1 RES     
   13718 C0        -183.0783   -59.0765   117.6778 C0            1 RES     
   13719 C0        -181.9899   -58.8109   116.5693 C0            1 RES     
   13720 C0        -181.9530   -59.5340   115.1948 C0            1 RES     
   13721 C0        -181.1991   -60.8988   115.0727 C0            1 RES     
   13722 C0        -180.5648   -60.9891   113.6498 C0            1 RES     
   13723 C0        -179.7438   -62.2531   113.3145 C0            1 RES     
   13724 C0        -178.9944   -62.0325   111.9764 C0            1 RES     
   13725 C0        -178.1928   -63.2491   111.5156 C0            1 RES     
   13726 H4        -185.7991   -59.3169   117.9999 H4            1 RES     
   13727 H5        -186.6310   -59.6081   116.0354 H5            1 RES     
   13728 H4        -185.2866   -55.5588   121.8966 H4            1 RES     
   13729 H6        -183.7861   -59.7339   121.6050 H6            1 RES     
   13730 H6        -183.2544   -57.9819   121.6542 H6            1 RES     
   13731 H6        -184.3280   -59.3663   123.9659 H6            1 RES     
   13732 H6        -182.9416   -56.8147   124.5058 H6            1 RES     
   13733 H6        -184.1879   -56.4724   123.3963 H6            1 RES     
   13734 H6        -185.8334   -57.7812   124.9300 H6            1 RES     
   13735 H6        -184.4443   -57.9542   126.0766 H6            1 RES     
   13736 H6        -184.3715   -55.3781   126.2107 H6            1 RES     
   13737 H6        -185.8154   -55.3553   125.1227 H6            1 RES     
   13738 H6        -185.5906   -56.6678   127.9164 H6            1 RES     
   13739 H6        -187.0310   -56.8277   126.8371 H6            1 RES     
   13740 H6        -185.9695   -54.1506   127.9472 H6            1 RES     
   13741 H6        -187.4141   -54.3920   126.8869 H6            1 RES     
   13742 H6        -188.4538   -55.8550   128.6568 H6            1 RES     
   13743 H6        -187.0181   -55.5680   129.7179 H6            1 RES     
   13744 H6        -188.0989   -54.1961   129.2669 H6            1 RES     
   13745 H6        -182.1851   -60.1068   123.1297 H6            1 RES     
   13746 H6        -181.5618   -58.4566   122.8663 H6            1 RES     
   13747 H6        -181.8226   -59.7660   125.6518 H6            1 RES     
   13748 H6        -180.4708   -59.8084   124.4982 H6            1 RES     
   13749 H6        -180.3476   -57.2633   124.5056 H6            1 RES     
   13750 H6        -181.3498   -57.3011   126.0079 H6            1 RES     
   13751 H6        -179.5045   -58.8698   127.0104 H6            1 RES     
   13752 H6        -178.6628   -58.7281   125.4421 H6            1 RES     
   13753 H6        -178.5750   -56.1922   125.7769 H6            1 RES     
   13754 H6        -179.0722   -56.4937   127.4781 H6            1 RES     
   13755 H6        -176.6093   -56.2126   127.1991 H6            1 RES     
   13756 H6        -176.5575   -57.4996   125.9481 H6            1 RES     
   13757 H6        -177.1329   -59.2228   127.6505 H6            1 RES     
   13758 H6        -177.2355   -57.9443   128.9278 H6            1 RES     
   13759 H6        -174.8205   -57.3787   128.5520 H6            1 RES     
   13760 H6        -174.7175   -58.6369   127.2598 H6            1 RES     
   13761 H6        -175.0253   -59.1196   128.9679 H6            1 RES     
   13762 H6        -185.0067   -57.1806   118.8920 H6            1 RES     
   13763 H6        -183.9552   -56.5919   120.1693 H6            1 RES     
   13764 H6        -182.6654   -57.0978   118.3804 H6            1 RES     
   13765 H6        -181.9674   -59.3018   120.4266 H6            1 RES     
   13766 H6        -181.6330   -57.4944   120.5333 H6            1 RES     
   13767 H6        -180.3057   -59.4772   118.6883 H6            1 RES     
   13768 H6        -180.1240   -57.6473   118.6823 H6            1 RES     
   13769 H6        -178.2833   -58.6540   119.7332 H6            1 RES     
   13770 H6        -179.2117   -57.8636   121.0531 H6            1 RES     
   13771 H6        -179.4185   -60.8635   120.2754 H6            1 RES     
   13772 H6        -180.0500   -60.1313   121.7873 H6            1 RES     
   13773 H6        -177.0886   -60.3755   120.8588 H6            1 RES     
   13774 H6        -177.9027   -61.4691   122.0296 H6            1 RES     
   13775 H6        -176.4641   -59.8286   123.1821 H6            1 RES     
   13776 H6        -178.2008   -59.6542   123.6081 H6            1 RES     
   13777 H6        -177.4130   -58.4578   122.4970 H6            1 RES     
   13778 H6        -183.1134   -60.1279   118.0384 H6            1 RES     
   13779 H6        -184.0056   -58.8521   117.1261 H6            1 RES     
   13780 H6        -182.1470   -57.7420   116.3091 H6            1 RES     
   13781 H6        -180.9603   -58.8682   116.9062 H6            1 RES     
   13782 H6        -181.3199   -58.8249   114.6152 H6            1 RES     
   13783 H6        -182.9340   -59.5491   114.6764 H6            1 RES     
   13784 H6        -181.8823   -61.7474   115.2940 H6            1 RES     
   13785 H6        -180.3502   -60.9339   115.7899 H6            1 RES     
   13786 H6        -179.8604   -60.1305   113.5671 H6            1 RES     
   13787 H6        -181.3529   -60.8690   112.8756 H6            1 RES     
   13788 H6        -180.4232   -63.1293   113.2387 H6            1 RES     
   13789 H6        -178.9894   -62.4479   114.1076 H6            1 RES     
   13790 H6        -178.2851   -61.1825   112.0953 H6            1 RES     
   13791 H6        -179.7170   -61.7724   111.1729 H6            1 RES     
   13792 H6        -178.8689   -64.1061   111.3161 H6            1 RES     
   13793 H6        -177.4366   -63.5377   112.2750 H6            1 RES     
   13794 H6        -177.6595   -62.9994   110.5707 H6            1 RES     
   13795 C0        -188.6854   -46.8714   123.7670 C0            1 RES     
   13796 C1        -190.0094   -46.9755   123.4431 C1            1 RES     
   13797 C1        -190.6794   -47.8626   124.2052 C1            1 RES     
   13798 C1        -189.8917   -48.4654   125.0397 C1            1 RES     
   13799 C1        -188.5072   -47.9903   124.8715 C1            1 RES     
   13800 C1        -187.9640   -49.3389   124.4236 C1            1 RES     
   13801 C1        -188.7285   -50.4377   124.6904 C1            1 RES     
   13802 S2        -190.1959   -50.0633   125.7087 S2            1 RES     
   13803 C1        -188.4253   -51.8261   124.1425 C1            1 RES     
   13804 C1        -187.1461   -52.1444   123.5984 C1            1 RES     
   13805 N3        -186.8732   -53.3782   123.0831 N3            1 RES     
   13806 C1        -187.7906   -54.3698   123.0321 C1            1 RES     
   13807 C1        -189.0672   -54.1279   123.5237 C1            1 RES     
   13808 C1        -189.3881   -52.8561   124.0889 C1            1 RES     
   13809 N3        -190.6739   -52.7376   124.5252 N3            1 RES     
   13810 S2        -191.3170   -54.2257   124.1838 S2            1 RES     
   13811 N3        -190.0615   -55.0485   123.4950 N3            1 RES     
   13812 S2        -192.2692   -48.0899   123.7336 S2            1 RES     
   13813 C1        -192.1281   -46.9721   122.4695 C1            1 RES     
   13814 C1        -190.8198   -46.4769   122.4094 C1            1 RES     
   13815 C0        -188.4484   -45.3631   124.2602 C0            1 RES     
   13816 C0        -189.2073   -44.0033   124.6720 C0            1 RES     
   13817 C0        -190.2722   -43.4721   123.6613 C0            1 RES     
   13818 C0        -191.6555   -43.3411   124.3262 C0            1 RES     
   13819 C0        -192.7959   -43.0028   123.3491 C0            1 RES     
   13820 C0        -194.1005   -42.7865   124.1396 C0            1 RES     
   13821 C0        -195.3317   -42.6420   123.2364 C0            1 RES     
   13822 C0        -196.5876   -42.3942   124.0753 C0            1 RES     
   13823 C0        -188.0421   -42.9322   124.8559 C0            1 RES     
   13824 C0        -188.1971   -41.4278   125.2427 C0            1 RES     
   13825 C0        -188.5293   -40.4194   124.1003 C0            1 RES     
   13826 C0        -187.9582   -39.0005   124.4055 C0            1 RES     
   13827 C0        -188.1672   -37.9887   123.2596 C0            1 RES     
   13828 C0        -187.2059   -36.7724   123.3037 C0            1 RES     
   13829 C0        -187.2677   -35.9227   124.5813 C0            1 RES     
   13830 C0        -186.3067   -34.7299   124.4847 C0            1 RES     
   13831 C0        -187.7108   -46.9563   122.4957 C0            1 RES     
   13832 C0        -186.1013   -46.6498   122.4523 C0            1 RES     
   13833 C0        -185.7390   -45.1672   122.8668 C0            1 RES     
   13834 C0        -184.3414   -44.6316   122.5729 C0            1 RES     
   13835 C0        -184.1324   -43.1338   122.8603 C0            1 RES     
   13836 C0        -184.0719   -42.8089   124.3672 C0            1 RES     
   13837 C0        -183.3646   -41.4703   124.6459 C0            1 RES     
   13838 C0        -184.1215   -40.2568   124.1346 C0            1 RES     
   13839 C0        -185.0678   -47.7300   123.0122 C0            1 RES     
   13840 C0        -183.7257   -47.7342   122.1860 C0            1 RES     
   13841 C0        -182.5907   -48.7782   122.3746 C0            1 RES     
   13842 C0        -181.4858   -48.5154   123.4498 C0            1 RES     
   13843 C0        -180.1371   -49.1018   122.9281 C0            1 RES     
   13844 C0        -178.8918   -48.9318   123.8250 C0            1 RES     
   13845 C0        -177.6292   -49.3394   123.0247 C0            1 RES     
   13846 C0        -176.3381   -49.2662   123.8385 C0            1 RES     
   13847 H4        -187.0778   -49.4103   123.8493 H4            1 RES     
   13848 H5        -186.3476   -51.4204   123.5996 H5            1 RES     
   13849 H4        -190.4940   -45.8104   121.6266 H4            1 RES     
   13850 H6        -187.7272   -45.5048   125.0934 H6            1 RES     
   13851 H6        -188.0318   -44.8828   123.3979 H6            1 RES     
   13852 H6        -189.6885   -44.1518   125.6637 H6            1 RES     
   13853 H6        -189.9916   -42.4898   123.2407 H6            1 RES     
   13854 H6        -190.3087   -44.0980   122.7773 H6            1 RES     
   13855 H6        -191.9160   -44.3065   124.8134 H6            1 RES     
   13856 H6        -191.5843   -42.5521   125.1072 H6            1 RES     
   13857 H6        -192.5656   -42.0834   122.7668 H6            1 RES     
   13858 H6        -192.9160   -43.8528   122.6416 H6            1 RES     
   13859 H6        -193.9874   -41.8726   124.7650 H6            1 RES     
   13860 H6        -194.2734   -43.6562   124.8105 H6            1 RES     
   13861 H6        -195.1993   -41.7969   122.5275 H6            1 RES     
   13862 H6        -195.4698   -43.5801   122.6553 H6            1 RES     
   13863 H6        -196.7417   -43.2213   124.8017 H6            1 RES     
   13864 H6        -196.4948   -41.4380   124.6339 H6            1 RES     
   13865 H6        -197.4794   -42.3338   123.4167 H6            1 RES     
   13866 H6        -187.4055   -43.3597   125.6614 H6            1 RES     
   13867 H6        -187.4170   -42.9099   123.9356 H6            1 RES     
   13868 H6        -188.8239   -41.2706   126.1435 H6            1 RES     
   13869 H6        -187.1565   -41.1636   125.5366 H6            1 RES     
   13870 H6        -188.0134   -40.7543   123.1720 H6            1 RES     
   13871 H6        -189.6206   -40.3815   123.9072 H6            1 RES     
   13872 H6        -188.3673   -38.5895   125.3525 H6            1 RES     
   13873 H6        -186.8700   -39.1071   124.5288 H6            1 RES     
   13874 H6        -187.9489   -38.4902   122.2914 H6            1 RES     
   13875 H6        -189.2280   -37.6600   123.2438 H6            1 RES     
   13876 H6        -187.4397   -36.1222   122.4318 H6            1 RES     
   13877 H6        -186.1620   -37.1386   123.1793 H6            1 RES     
   13878 H6        -186.9722   -36.5397   125.4561 H6            1 RES     
   13879 H6        -188.2983   -35.5407   124.7348 H6            1 RES     
   13880 H6        -186.5889   -34.0692   123.6366 H6            1 RES     
   13881 H6        -185.2609   -35.0760   124.3340 H6            1 RES     
   13882 H6        -186.3450   -34.1326   125.4205 H6            1 RES     
   13883 H6        -187.8586   -47.9599   122.0399 H6            1 RES     
   13884 H6        -188.1239   -46.2502   121.7395 H6            1 RES     
   13885 H6        -185.9395   -46.6964   121.3536 H6            1 RES     
   13886 H6        -185.8933   -45.0334   123.9542 H6            1 RES     
   13887 H6        -186.3915   -44.4999   122.2640 H6            1 RES     
   13888 H6        -183.6019   -45.1453   123.2121 H6            1 RES     
   13889 H6        -184.1461   -44.7948   121.4909 H6            1 RES     
   13890 H6        -183.1328   -42.9010   122.4359 H6            1 RES     
   13891 H6        -184.8820   -42.5034   122.3321 H6            1 RES     
   13892 H6        -183.4436   -43.5760   124.8674 H6            1 RES     
   13893 H6        -185.0817   -42.8439   124.8279 H6            1 RES     
   13894 H6        -182.3531   -41.4900   124.1848 H6            1 RES     
   13895 H6        -183.2364   -41.3556   125.7441 H6            1 RES     
   13896 H6        -183.5425   -39.3356   124.3603 H6            1 RES     
   13897 H6        -185.0814   -40.2100   124.6682 H6            1 RES     
   13898 H6        -184.2911   -40.3071   123.0395 H6            1 RES     
   13899 H6        -184.9256   -47.6293   124.1106 H6            1 RES     
   13900 H6        -185.4603   -48.7353   122.7890 H6            1 RES     
   13901 H6        -184.0701   -47.8941   121.1416 H6            1 RES     
   13902 H6        -183.1916   -46.7902   122.1628 H6            1 RES     
   13903 H6        -182.0545   -48.6647   121.4056 H6            1 RES     
   13904 H6        -182.9529   -49.8269   122.3934 H6            1 RES     
   13905 H6        -181.7859   -48.9361   124.4341 H6            1 RES     
   13906 H6        -181.3193   -47.4226   123.5700 H6            1 RES     
   13907 H6        -179.9107   -48.5665   121.9781 H6            1 RES     
   13908 H6        -180.2575   -50.1825   122.6989 H6            1 RES     
   13909 H6        -178.9969   -49.5649   124.7323 H6            1 RES     
   13910 H6        -178.7789   -47.8703   124.1358 H6            1 RES     
   13911 H6        -177.5199   -48.6582   122.1506 H6            1 RES     
   13912 H6        -177.7376   -50.3781   122.6443 H6            1 RES     
   13913 H6        -176.3722   -49.9828   124.6852 H6            1 RES     
   13914 H6        -176.1687   -48.2393   124.2238 H6            1 RES     
   13915 H6        -175.4782   -49.5395   123.1860 H6            1 RES     
   13916 C0        -197.2189   -45.7376   114.8967 C0            1 RES     
   13917 C1        -197.9071   -46.8959   115.1276 C1            1 RES     
   13918 C1        -198.5154   -46.9272   116.3300 C1            1 RES     
   13919 C1        -198.2542   -45.8643   117.0246 C1            1 RES     
   13920 C1        -197.3589   -44.9682   116.2722 C1            1 RES     
   13921 C1        -196.2074   -45.0809   117.2601 C1            1 RES     
   13922 C1        -196.5000   -45.5567   118.5055 C1            1 RES     
   13923 S2        -198.2877   -45.7983   118.7818 S2            1 RES     
   13924 C1        -195.4403   -45.9114   119.5404 C1            1 RES     
   13925 C1        -194.0956   -45.4551   119.4097 C1            1 RES     
   13926 N3        -193.1341   -45.7882   120.3190 N3            1 RES     
   13927 C1        -193.3782   -46.5825   121.3853 C1            1 RES     
   13928 C1        -194.6608   -47.0840   121.5679 C1            1 RES     
   13929 C1        -195.7004   -46.7438   120.6496 C1            1 RES     
   13930 N3        -196.9100   -47.3065   120.9286 N3            1 RES     
   13931 S2        -196.6015   -48.1803   122.3018 S2            1 RES     
   13932 N3        -194.9985   -47.9066   122.5907 N3            1 RES     
   13933 S2        -199.2534   -48.3897   116.6733 S2            1 RES     
   13934 C1        -198.7922   -49.0524   115.1849 C1            1 RES     
   13935 C1        -198.0237   -48.1294   114.4651 C1            1 RES     
   13936 C0        -197.9118   -45.0336   113.6322 C0            1 RES     
   13937 C0        -199.1959   -45.0943   112.6618 C0            1 RES     
   13938 C0        -199.5164   -46.4830   112.0244 C0            1 RES     
   13939 C0        -200.9390   -46.9487   112.3883 C0            1 RES     
   13940 C0        -201.2616   -48.3898   111.9541 C0            1 RES     
   13941 C0        -202.7375   -48.7010   112.2678 C0            1 RES     
   13942 C0        -203.0976   -50.1766   112.0543 C0            1 RES     
   13943 C0        -204.5807   -50.4157   112.3465 C0            1 RES     
   13944 C0        -198.8894   -44.0242   111.5217 C0            1 RES     
   13945 C0        -199.7895   -43.6673   110.2973 C0            1 RES     
   13946 C0        -199.6932   -44.5839   109.0392 C0            1 RES     
   13947 C0        -200.0045   -43.7942   107.7307 C0            1 RES     
   13948 C0        -199.8212   -44.6278   106.4454 C0            1 RES     
   13949 C0        -199.6250   -43.7799   105.1617 C0            1 RES     
   13950 C0        -200.7647   -42.8063   104.8278 C0            1 RES     
   13951 C0        -200.4737   -42.0617   103.5176 C0            1 RES     
   13952 C0        -195.7273   -45.9803   114.3587 C0            1 RES     
   13953 C0        -194.6890   -44.8609   113.7625 C0            1 RES     
   13954 C0        -195.2366   -44.1298   112.4716 C0            1 RES     
   13955 C0        -194.2774   -43.3065   111.6180 C0            1 RES     
   13956 C0        -194.8597   -42.7697   110.2980 C0            1 RES     
   13957 C0        -195.8610   -41.6141   110.5034 C0            1 RES     
   13958 C0        -196.0311   -40.7593   109.2344 C0            1 RES     
   13959 C0        -196.6941   -41.4942   108.0823 C0            1 RES     
   13960 C0        -193.9117   -43.8837   114.7571 C0            1 RES     
   13961 C0        -192.4659   -43.5454   114.2289 C0            1 RES     
   13962 C0        -191.4034   -42.7579   115.0441 C0            1 RES     
   13963 C0        -191.3873   -41.1961   114.9648 C0            1 RES     
   13964 C0        -189.9088   -40.7094   115.0758 C0            1 RES     
   13965 C0        -189.6511   -39.1891   114.9949 C0            1 RES     
   13966 C0        -188.1279   -38.9380   114.8618 C0            1 RES     
   13967 C0        -187.7515   -37.4574   114.8332 C0            1 RES     
   13968 H4        -195.2098   -44.8866   116.9647 H4            1 RES     
   13969 H5        -193.8053   -44.8119   118.5950 H5            1 RES     
   13970 H4        -197.5620   -48.3782   113.5228 H4            1 RES     
   13971 H6        -197.8663   -43.9599   113.9140 H6            1 RES     
   13972 H6        -197.2692   -45.2997   112.8174 H6            1 RES     
   13973 H6        -200.0853   -44.7391   113.2274 H6            1 RES     
   13974 H6        -199.4247   -46.4656   110.9236 H6            1 RES     
   13975 H6        -198.7692   -47.2162   112.3050 H6            1 RES     
   13976 H6        -201.0636   -46.9027   113.4926 H6            1 RES     
   13977 H6        -201.6589   -46.2445   111.9157 H6            1 RES     
   13978 H6        -201.0828   -48.5302   110.8652 H6            1 RES     
   13979 H6        -200.5984   -49.0832   112.5171 H6            1 RES     
   13980 H6        -203.3789   -48.0630   111.6192 H6            1 RES     
   13981 H6        -202.9489   -48.4518   113.3306 H6            1 RES     
   13982 H6        -202.8821   -50.4841   111.0086 H6            1 RES     
   13983 H6        -202.4920   -50.8034   112.7451 H6            1 RES     
   13984 H6        -204.8288   -50.1086   113.3856 H6            1 RES     
   13985 H6        -205.2109   -49.8340   111.6397 H6            1 RES     
   13986 H6        -204.8225   -51.4932   112.2311 H6            1 RES     
   13987 H6        -198.7807   -43.0644   112.0730 H6            1 RES     
   13988 H6        -197.8966   -44.2449   111.0701 H6            1 RES     
   13989 H6        -200.8376   -43.4390   110.5773 H6            1 RES     
   13990 H6        -199.3399   -42.7060   109.9612 H6            1 RES     
   13991 H6        -198.6403   -44.9305   108.9341 H6            1 RES     
   13992 H6        -200.3515   -45.4705   109.1409 H6            1 RES     
   13993 H6        -201.0223   -43.3509   107.7523 H6            1 RES     
   13994 H6        -199.2803   -42.9681   107.6689 H6            1 RES     
   13995 H6        -198.8902   -45.2293   106.5353 H6            1 RES     
   13996 H6        -200.6740   -45.3307   106.3343 H6            1 RES     
   13997 H6        -199.4936   -44.4808   104.3077 H6            1 RES     
   13998 H6        -198.6843   -43.1933   105.2624 H6            1 RES     
   13999 H6        -200.8669   -42.0566   105.6406 H6            1 RES     
   14000 H6        -201.7197   -43.3611   104.7199 H6            1 RES     
   14001 H6        -200.3947   -42.7779   102.6711 H6            1 RES     
   14002 H6        -199.5230   -41.4901   103.5905 H6            1 RES     
   14003 H6        -201.2943   -41.3470   103.2949 H6            1 RES     
   14004 H6        -195.1811   -46.5328   115.1545 H6            1 RES     
   14005 H6        -195.8128   -46.7157   113.5262 H6            1 RES     
   14006 H6        -193.8853   -45.5375   113.3993 H6            1 RES     
   14007 H6        -196.0603   -43.4452   112.7492 H6            1 RES     
   14008 H6        -195.5691   -44.9262   111.7718 H6            1 RES     
   14009 H6        -193.9630   -42.4048   112.1726 H6            1 RES     
   14010 H6        -193.4175   -43.9625   111.3617 H6            1 RES     
   14011 H6        -193.9869   -42.3523   109.7527 H6            1 RES     
   14012 H6        -195.2923   -43.5847   109.6759 H6            1 RES     
   14013 H6        -195.4457   -40.9201   111.2644 H6            1 RES     
   14014 H6        -196.8361   -41.9880   110.8808 H6            1 RES     
   14015 H6        -195.0345   -40.3914   108.9068 H6            1 RES     
   14016 H6        -196.6570   -39.8744   109.4809 H6            1 RES     
   14017 H6        -196.7676   -40.8180   107.2035 H6            1 RES     
   14018 H6        -197.7092   -41.7715   108.4002 H6            1 RES     
   14019 H6        -196.1229   -42.3975   107.7853 H6            1 RES     
   14020 H6        -194.5228   -42.9907   115.0139 H6            1 RES     
   14021 H6        -193.6785   -44.4398   115.6795 H6            1 RES     
   14022 H6        -192.0074   -44.5472   114.0826 H6            1 RES     
   14023 H6        -192.4265   -43.0748   113.2522 H6            1 RES     
   14024 H6        -190.4766   -43.0634   114.5083 H6            1 RES     
   14025 H6        -191.2813   -43.1262   116.0837 H6            1 RES     
   14026 H6        -192.0452   -40.7552   115.7450 H6            1 RES     
   14027 H6        -191.7476   -40.8585   113.9686 H6            1 RES     
   14028 H6        -189.3657   -41.1625   114.2156 H6            1 RES     
   14029 H6        -189.4540   -41.0912   116.0151 H6            1 RES     
   14030 H6        -190.0473   -38.6950   115.9082 H6            1 RES     
   14031 H6        -190.1541   -38.7569   114.1027 H6            1 RES     
   14032 H6        -187.7670   -39.3995   113.9149 H6            1 RES     
   14033 H6        -187.5875   -39.4139   115.7085 H6            1 RES     
   14034 H6        -188.0301   -36.9678   115.7893 H6            1 RES     
   14035 H6        -188.2480   -36.9373   113.9877 H6            1 RES     
   14036 H6        -186.6500   -37.3623   114.7017 H6            1 RES     
   14037 C0        -198.1628   -57.8070   112.4014 C0            1 RES     
   14038 C1        -198.3582   -58.2632   113.6752 C1            1 RES     
   14039 C1        -199.5087   -57.8310   114.2286 C1            1 RES     
   14040 C1        -200.1440   -57.0228   113.4389 C1            1 RES     
   14041 C1        -199.3875   -56.8278   112.1896 C1            1 RES     
   14042 C1        -199.1469   -55.3430   112.4177 C1            1 RES     
   14043 C1        -199.9393   -54.7179   113.3365 C1            1 RES     
   14044 S2        -201.2687   -55.7863   113.9858 S2            1 RES     
   14045 C1        -199.7024   -53.2933   113.8206 C1            1 RES     
   14046 C1        -198.8508   -52.4003   113.1058 C1            1 RES     
   14047 N3        -198.6135   -51.1303   113.5452 N3            1 RES     
   14048 C1        -199.1447   -50.6392   114.6871 C1            1 RES     
   14049 C1        -199.9681   -51.4580   115.4498 C1            1 RES     
   14050 C1        -200.2571   -52.7874   115.0153 C1            1 RES     
   14051 N3        -201.0659   -53.4949   115.8538 N3            1 RES     
   14052 S2        -201.3698   -52.4133   117.0713 S2            1 RES     
   14053 N3        -200.5277   -51.0660   116.6203 N3            1 RES     
   14054 S2        -199.6956   -58.2797   115.8302 S2            1 RES     
   14055 C1        -198.2166   -59.1040   115.8454 C1            1 RES     
   14056 C1        -197.5787   -58.9700   114.6062 C1            1 RES     
   14057 C0        -198.1316   -59.0979   111.4489 C0            1 RES     
   14058 C0        -198.4117   -60.6836   111.4112 C0            1 RES     
   14059 C0        -197.7328   -61.5330   112.5316 C0            1 RES     
   14060 C0        -198.7782   -62.3149   113.3494 C0            1 RES     
   14061 C0        -198.2061   -63.0276   114.5880 C0            1 RES     
   14062 C0        -199.3151   -63.8627   115.2562 C0            1 RES     
   14063 C0        -198.8917   -64.4484   116.6091 C0            1 RES     
   14064 C0        -200.0190   -65.2948   117.2049 C0            1 RES     
   14065 C0        -197.8933   -61.1496   109.9784 C0            1 RES     
   14066 C0        -197.9033   -62.5986   109.3978 C0            1 RES     
   14067 C0        -196.7269   -63.5429   109.7935 C0            1 RES     
   14068 C0        -196.4334   -64.5907   108.6761 C0            1 RES     
   14069 C0        -195.2102   -65.4839   108.9698 C0            1 RES     
   14070 C0        -194.5988   -66.1562   107.7130 C0            1 RES     
   14071 C0        -195.5496   -67.0593   106.9138 C0            1 RES     
   14072 C0        -194.8177   -67.6980   105.7254 C0            1 RES     
   14073 C0        -196.7013   -57.1902   112.1637 C0            1 RES     
   14074 C0        -196.0231   -56.7572   110.7358 C0            1 RES     
   14075 C0        -195.8840   -57.9631   109.7222 C0            1 RES     
   14076 C0        -194.9941   -57.8052   108.4935 C0            1 RES     
   14077 C0        -194.7898   -59.0802   107.6555 C0            1 RES     
   14078 C0        -196.0415   -59.4808   106.8475 C0            1 RES     
   14079 C0        -195.6978   -60.3948   105.6574 C0            1 RES     
   14080 C0        -195.1838   -61.7653   106.0631 C0            1 RES     
   14081 C0        -196.4499   -55.3895   110.0317 C0            1 RES     
   14082 C0        -195.2405   -54.7245   109.2708 C0            1 RES     
   14083 C0        -195.2882   -53.3114   108.6271 C0            1 RES     
   14084 C0        -195.8043   -53.1610   107.1585 C0            1 RES     
   14085 C0        -195.0186   -51.9996   106.4736 C0            1 RES     
   14086 C0        -195.3495   -51.6887   104.9977 C0            1 RES     
   14087 C0        -194.2961   -50.6998   104.4379 C0            1 RES     
   14088 C0        -194.5615   -50.2747   102.9945 C0            1 RES     
   14089 H4        -198.3403   -54.8399   111.9523 H4            1 RES     
   14090 H5        -198.3857   -52.6994   112.1806 H5            1 RES     
   14091 H4        -196.5867   -59.3533   114.4270 H4            1 RES     
   14092 H6        -198.6684   -58.7313   110.5479 H6            1 RES     
   14093 H6        -197.0849   -59.2676   111.2957 H6            1 RES     
   14094 H6        -199.5108   -60.8507   111.4428 H6            1 RES     
   14095 H6        -197.0005   -62.2513   112.1217 H6            1 RES     
   14096 H6        -197.1124   -60.9088   113.1641 H6            1 RES     
   14097 H6        -199.5592   -61.6088   113.7082 H6            1 RES     
   14098 H6        -199.2513   -63.0605   112.6727 H6            1 RES     
   14099 H6        -197.3620   -63.6970   114.3114 H6            1 RES     
   14100 H6        -197.8322   -62.2554   115.2962 H6            1 RES     
   14101 H6        -199.6009   -64.6877   114.5657 H6            1 RES     
   14102 H6        -200.2062   -63.2206   115.4297 H6            1 RES     
   14103 H6        -197.9867   -65.0827   116.4944 H6            1 RES     
   14104 H6        -198.6607   -63.6166   117.3104 H6            1 RES     
   14105 H6        -200.9425   -64.6877   117.3237 H6            1 RES     
   14106 H6        -200.2406   -66.1605   116.5442 H6            1 RES     
   14107 H6        -199.7199   -65.6790   118.2027 H6            1 RES     
   14108 H6        -198.5091   -60.5617   109.2628 H6            1 RES     
   14109 H6        -196.8413   -60.8131   109.8426 H6            1 RES     
   14110 H6        -198.8915   -63.0947   109.4781 H6            1 RES     
   14111 H6        -197.7376   -62.4069   108.3138 H6            1 RES     
   14112 H6        -195.7988   -62.9338   109.8812 H6            1 RES     
   14113 H6        -196.9222   -64.0363   110.7672 H6            1 RES     
   14114 H6        -197.3214   -65.2229   108.4643 H6            1 RES     
   14115 H6        -196.1942   -64.0309   107.7595 H6            1 RES     
   14116 H6        -194.3929   -64.8521   109.3817 H6            1 RES     
   14117 H6        -195.4788   -66.2402   109.7376 H6            1 RES     
   14118 H6        -193.7251   -66.7615   108.0419 H6            1 RES     
   14119 H6        -194.2195   -65.3612   107.0325 H6            1 RES     
   14120 H6        -196.3957   -66.4571   106.5204 H6            1 RES     
   14121 H6        -195.9463   -67.8653   107.5652 H6            1 RES     
   14122 H6        -193.9796   -68.3359   106.0806 H6            1 RES     
   14123 H6        -194.4088   -66.9177   105.0472 H6            1 RES     
   14124 H6        -195.5182   -68.3338   105.1433 H6            1 RES     
   14125 H6        -196.6037   -56.3154   112.8435 H6            1 RES     
   14126 H6        -195.9796   -57.9342   112.5719 H6            1 RES     
   14127 H6        -194.9893   -56.5454   111.0853 H6            1 RES     
   14128 H6        -196.8822   -58.2487   109.3397 H6            1 RES     
   14129 H6        -195.3938   -58.7910   110.2780 H6            1 RES     
   14130 H6        -195.4468   -57.0801   107.7945 H6            1 RES     
   14131 H6        -193.9942   -57.4759   108.8503 H6            1 RES     
   14132 H6        -193.9996   -58.8133   106.9222 H6            1 RES     
   14133 H6        -194.4102   -59.9242   108.2736 H6            1 RES     
   14134 H6        -196.4737   -58.5650   106.3915 H6            1 RES     
   14135 H6        -196.8164   -59.9325   107.5022 H6            1 RES     
   14136 H6        -194.9362   -59.8936   105.0213 H6            1 RES     
   14137 H6        -196.6125   -60.5408   105.0430 H6            1 RES     
   14138 H6        -194.9459   -62.3571   105.1531 H6            1 RES     
   14139 H6        -195.9858   -62.2749   106.6159 H6            1 RES     
   14140 H6        -194.2696   -61.6954   106.6872 H6            1 RES     
   14141 H6        -197.3636   -55.5169   109.4107 H6            1 RES     
   14142 H6        -196.6473   -54.6412   110.8163 H6            1 RES     
   14143 H6        -194.4611   -54.6375   110.0582 H6            1 RES     
   14144 H6        -194.7879   -55.3338   108.4957 H6            1 RES     
   14145 H6        -194.1994   -53.0910   108.5529 H6            1 RES     
   14146 H6        -195.7043   -52.5328   109.2995 H6            1 RES     
   14147 H6        -196.9048   -53.0047   107.1416 H6            1 RES     
   14148 H6        -195.5698   -54.0770   106.5735 H6            1 RES     
   14149 H6        -193.9447   -52.2938   106.4955 H6            1 RES     
   14150 H6        -195.1357   -51.0644   107.0622 H6            1 RES     
   14151 H6        -196.3683   -51.2501   104.9288 H6            1 RES     
   14152 H6        -195.3134   -52.6174   104.3877 H6            1 RES     
   14153 H6        -193.2933   -51.1826   104.4718 H6            1 RES     
   14154 H6        -194.2619   -49.7832   105.0657 H6            1 RES     
   14155 H6        -195.5228   -49.7249   102.9226 H6            1 RES     
   14156 H6        -194.5820   -51.1545   102.3183 H6            1 RES     
   14157 H6        -193.7463   -49.5954   102.6573 H6            1 RES     
   14158 C0        -192.8424   -61.7485   122.8391 C0            1 RES     
   14159 C1        -193.5916   -61.0336   123.7316 C1            1 RES     
   14160 C1        -194.8941   -61.3801   123.7367 C1            1 RES     
   14161 C1        -195.1519   -62.2800   122.8400 C1            1 RES     
   14162 C1        -193.9295   -62.6227   122.0922 C1            1 RES     
   14163 C1        -194.4486   -62.1079   120.7581 C1            1 RES     
   14164 C1        -195.7961   -61.9226   120.6440 C1            1 RES     
   14165 S2        -196.7291   -62.5126   122.0972 S2            1 RES     
   14166 C1        -196.4526   -61.2358   119.4536 C1            1 RES     
   14167 C1        -195.7486   -61.0446   118.2282 C1            1 RES     
   14168 N3        -196.3204   -60.4086   117.1648 N3            1 RES     
   14169 C1        -197.5727   -59.9009   117.2020 C1            1 RES     
   14170 C1        -198.3137   -60.0291   118.3702 C1            1 RES     
   14171 C1        -197.7591   -60.7048   119.4997 C1            1 RES     
   14172 N3        -198.5773   -60.7551   120.5885 N3            1 RES     
   14173 S2        -199.9348   -59.9624   120.0655 S2            1 RES     
   14174 N3        -199.5667   -59.5330   118.5138 N3            1 RES     
   14175 S2        -195.8410   -60.4249   124.7329 S2            1 RES     
   14176 C1        -194.5128   -59.4957   125.2226 C1            1 RES     
   14177 C1        -193.3569   -59.9208   124.5565 C1            1 RES     
   14178 C0        -191.7608   -62.5670   123.6962 C0            1 RES     
   14179 C0        -191.3486   -62.9861   125.1959 C0            1 RES     
   14180 C0        -191.2479   -61.8257   126.2356 C0            1 RES     
   14181 C0        -192.1913   -62.0635   127.4299 C0            1 RES     
   14182 C0        -192.2880   -60.8756   128.4040 C0            1 RES     
   14183 C0        -193.1645   -61.2704   129.6079 C0            1 RES     
   14184 C0        -193.4820   -60.0880   130.5318 C0            1 RES     
   14185 C0        -194.3228   -60.5485   131.7247 C0            1 RES     
   14186 C0        -189.9363   -63.7067   125.0384 C0            1 RES     
   14187 C0        -189.0531   -64.3087   126.1761 C0            1 RES     
   14188 C0        -188.1254   -63.3325   126.9627 C0            1 RES     
   14189 C0        -186.8490   -64.0569   127.4908 C0            1 RES     
   14190 C0        -185.8449   -63.1146   128.1868 C0            1 RES     
   14191 C0        -184.3994   -63.6716   128.2623 C0            1 RES     
   14192 C0        -184.2409   -65.0106   128.9970 C0            1 RES     
   14193 C0        -182.7656   -65.4313   129.0426 C0            1 RES     
   14194 C0        -191.9029   -60.8309   121.9181 C0            1 RES     
   14195 C0        -190.7133   -61.3250   120.9046 C0            1 RES     
   14196 C0        -189.5502   -62.1018   121.6425 C0            1 RES     
   14197 C0        -188.2334   -62.3422   120.9112 C0            1 RES     
   14198 C0        -187.1069   -62.9577   121.7607 C0            1 RES     
   14199 C0        -187.3385   -64.4480   122.0856 C0            1 RES     
   14200 C0        -186.0318   -65.1725   122.4562 C0            1 RES     
   14201 C0        -185.4160   -64.7004   123.7619 C0            1 RES     
   14202 C0        -191.0844   -61.9498   119.4832 C0            1 RES     
   14203 C0        -190.0180   -61.5729   118.3856 C0            1 RES     
   14204 C0        -190.1779   -61.8871   116.8725 C0            1 RES     
   14205 C0        -189.6938   -63.2706   116.3272 C0            1 RES     
   14206 C0        -189.1532   -63.0701   114.8771 C0            1 RES     
   14207 C0        -188.5944   -64.3106   114.1470 C0            1 RES     
   14208 C0        -187.8798   -63.8577   112.8489 C0            1 RES     
   14209 C0        -187.3373   -65.0156   112.0126 C0            1 RES     
   14210 H4        -193.7853   -61.8191   119.9855 H4            1 RES     
   14211 H5        -194.7463   -61.4197   118.1006 H5            1 RES     
   14212 H4        -192.4125   -59.4111   124.6639 H4            1 RES     
   14213 H6        -191.7188   -63.5335   123.1499 H6            1 RES     
   14214 H6        -190.8729   -61.9743   123.6057 H6            1 RES     
   14215 H6        -192.0745   -63.7438   125.5649 H6            1 RES     
   14216 H6        -190.2199   -61.7017   126.6209 H6            1 RES     
   14217 H6        -191.4322   -60.8685   125.7620 H6            1 RES     
   14218 H6        -193.2173   -62.2590   127.0475 H6            1 RES     
   14219 H6        -191.8322   -62.9656   127.9729 H6            1 RES     
   14220 H6        -191.2817   -60.5733   128.7691 H6            1 RES     
   14221 H6        -192.7455   -60.0162   127.8657 H6            1 RES     
   14222 H6        -192.6368   -62.0629   130.1845 H6            1 RES     
   14223 H6        -194.1303   -61.6820   129.2415 H6            1 RES     
   14224 H6        -192.5454   -59.6240   130.9086 H6            1 RES     
   14225 H6        -194.0572   -59.3248   129.9629 H6            1 RES     
   14226 H6        -195.2649   -61.0258   131.3778 H6            1 RES     
   14227 H6        -193.7535   -61.2806   132.3371 H6            1 RES     
   14228 H6        -194.5838   -59.6794   132.3646 H6            1 RES     
   14229 H6        -190.1448   -64.5679   124.3663 H6            1 RES     
   14230 H6        -189.2420   -63.0345   124.4866 H6            1 RES     
   14231 H6        -189.6099   -64.9963   126.8441 H6            1 RES     
   14232 H6        -188.3435   -64.9421   125.5977 H6            1 RES     
   14233 H6        -187.7552   -62.5527   126.2593 H6            1 RES     
   14234 H6        -188.6768   -62.8359   127.7867 H6            1 RES     
   14235 H6        -187.1066   -64.9004   128.1656 H6            1 RES     
   14236 H6        -186.3264   -64.4742   126.6170 H6            1 RES     
   14237 H6        -185.7593   -62.1776   127.5941 H6            1 RES     
   14238 H6        -186.2244   -62.8482   129.1960 H6            1 RES     
   14239 H6        -183.7673   -62.9096   128.7700 H6            1 RES     
   14240 H6        -184.0104   -63.7945   127.2266 H6            1 RES     
   14241 H6        -184.8131   -65.7998   128.4649 H6            1 RES     
   14242 H6        -184.6202   -64.9218   130.0362 H6            1 RES     
   14243 H6        -182.1624   -64.6794   129.5961 H6            1 RES     
   14244 H6        -182.3518   -65.5340   128.0158 H6            1 RES     
   14245 H6        -182.6638   -66.4094   129.5591 H6            1 RES     
   14246 H6        -192.5740   -60.1697   121.3270 H6            1 RES     
   14247 H6        -191.3745   -60.1349   122.6091 H6            1 RES     
   14248 H6        -190.2833   -60.3354   120.6371 H6            1 RES     
   14249 H6        -189.9080   -63.0995   121.9600 H6            1 RES     
   14250 H6        -189.2431   -61.4712   122.5042 H6            1 RES     
   14251 H6        -188.3887   -63.0619   120.0881 H6            1 RES     
   14252 H6        -187.8748   -61.3562   120.5443 H6            1 RES     
   14253 H6        -186.2036   -62.9005   121.1171 H6            1 RES     
   14254 H6        -186.9093   -62.3611   122.6791 H6            1 RES     
   14255 H6        -187.6988   -64.9564   121.1663 H6            1 RES     
   14256 H6        -188.1147   -64.5736   122.8697 H6            1 RES     
   14257 H6        -185.2945   -65.0366   121.6354 H6            1 RES     
   14258 H6        -186.2406   -66.2602   122.5503 H6            1 RES     
   14259 H6        -184.4737   -65.2581   123.9514 H6            1 RES     
   14260 H6        -186.1273   -64.9246   124.5695 H6            1 RES     
   14261 H6        -185.1855   -63.6156   123.7414 H6            1 RES     
   14262 H6        -191.2952   -63.0392   119.5577 H6            1 RES     
   14263 H6        -191.9791   -61.4336   119.0992 H6            1 RES     
   14264 H6        -189.9881   -60.4629   118.4301 H6            1 RES     
   14265 H6        -189.0020   -61.8886   118.5974 H6            1 RES     
   14266 H6        -189.4529   -61.1602   116.4418 H6            1 RES     
   14267 H6        -191.1679   -61.5982   116.4629 H6            1 RES     
   14268 H6        -190.5101   -64.0232   116.3819 H6            1 RES     
   14269 H6        -188.8335   -63.6400   116.9270 H6            1 RES     
   14270 H6        -188.3077   -62.3495   114.9561 H6            1 RES     
   14271 H6        -189.9407   -62.6146   114.2390 H6            1 RES     
   14272 H6        -189.4258   -65.0085   113.9087 H6            1 RES     
   14273 H6        -187.8528   -64.8365   114.7869 H6            1 RES     
   14274 H6        -187.0218   -63.2013   113.1189 H6            1 RES     
   14275 H6        -188.5787   -63.2722   112.2132 H6            1 RES     
   14276 H6        -188.1676   -65.6620   111.6601 H6            1 RES     
   14277 H6        -186.6126   -65.6215   112.5953 H6            1 RES     
   14278 H6        -186.8114   -64.6075   111.1201 H6            1 RES     
   14279 C0        -194.0692   -51.1344   129.0539 C0            1 RES     
   14280 C1        -195.4034   -50.9267   128.8400 C1            1 RES     
   14281 C1        -196.1889   -51.8663   129.4029 C1            1 RES     
   14282 C1        -195.4876   -52.7958   129.9727 C1            1 RES     
   14283 C1        -194.0487   -52.5267   129.8053 C1            1 RES     
   14284 C1        -193.7835   -53.7709   128.9709 C1            1 RES     
   14285 C1        -194.7234   -54.7597   129.0115 C1            1 RES     
   14286 S2        -196.0487   -54.4433   130.2257 S2            1 RES     
   14287 C1        -194.7058   -55.9748   128.0934 C1            1 RES     
   14288 C1        -193.5333   -56.3372   127.3671 C1            1 RES     
   14289 N3        -193.5155   -57.4098   126.5236 N3            1 RES     
   14290 C1        -194.6006   -58.1847   126.3013 C1            1 RES     
   14291 C1        -195.7871   -57.8807   126.9569 C1            1 RES     
   14292 C1        -195.8428   -56.7780   127.8628 C1            1 RES     
   14293 N3        -197.0634   -56.5742   128.4338 N3            1 RES     
   14294 S2        -197.9837   -57.7850   127.7769 S2            1 RES     
   14295 N3        -196.9337   -58.5819   126.7819 N3            1 RES     
   14296 S2        -197.8134   -51.6913   129.0400 S2            1 RES     
   14297 C1        -197.5282   -50.3087   128.1050 C1            1 RES     
   14298 C1        -196.1554   -50.0377   128.0538 C1            1 RES     
   14299 C0        -193.5369   -49.8794   129.9001 C0            1 RES     
   14300 C0        -194.0136   -48.5792   130.7229 C0            1 RES     
   14301 C0        -195.0084   -47.6239   129.9913 C0            1 RES     
   14302 C0        -196.3121   -47.4549   130.7944 C0            1 RES     
   14303 C0        -197.4148   -46.6792   130.0516 C0            1 RES     
   14304 C0        -198.6196   -46.4768   130.9902 C0            1 RES     
   14305 C0        -199.8438   -45.8900   130.2763 C0            1 RES     
   14306 C0        -200.9928   -45.6791   131.2650 C0            1 RES     
   14307 C0        -192.6645   -47.8061   131.0704 C0            1 RES     
   14308 C0        -192.5227   -46.4613   131.8502 C0            1 RES     
   14309 C0        -192.7165   -45.1379   131.0480 C0            1 RES     
   14310 C0        -191.8813   -43.9709   131.6588 C0            1 RES     
   14311 C0        -191.9537   -42.6636   130.8426 C0            1 RES     
   14312 C0        -190.7845   -41.6811   131.1129 C0            1 RES     
   14313 C0        -190.6303   -41.2162   132.5683 C0            1 RES     
   14314 C0        -189.4722   -40.2173   132.6973 C0            1 RES     
   14315 C0        -193.1865   -51.0262   127.7189 C0            1 RES     
   14316 C0        -191.5518   -50.9881   127.6060 C0            1 RES     
   14317 C0        -190.9049   -49.7565   128.3581 C0            1 RES     
   14318 C0        -189.4478   -49.3979   128.0845 C0            1 RES     
   14319 C0        -188.9544   -48.0918   128.7329 C0            1 RES     
   14320 C0        -188.7659   -48.2072   130.2598 C0            1 RES     
   14321 C0        -187.8128   -47.1314   130.8113 C0            1 RES     
   14322 C0        -188.3569   -45.7170   130.7089 C0            1 RES     
   14323 C0        -190.7094   -52.3349   127.7639 C0            1 RES     
   14324 C0        -189.4304   -52.3327   126.8430 C0            1 RES     
   14325 C0        -188.4988   -53.5600   126.6442 C0            1 RES     
   14326 C0        -187.3161   -53.7873   127.6418 C0            1 RES     
   14327 C0        -186.1234   -54.4214   126.8604 C0            1 RES     
   14328 C0        -184.8280   -54.7107   127.6492 C0            1 RES     
   14329 C0        -183.7000   -55.0848   126.6550 C0            1 RES     
   14330 C0        -182.3812   -55.4506   127.3345 C0            1 RES     
   14331 H4        -192.9529   -53.8266   128.3173 H4            1 RES     
   14332 H5        -192.6163   -55.7827   127.4827 H5            1 RES     
   14333 H4        -195.7492   -49.2450   127.4457 H4            1 RES     
   14334 H6        -192.8163   -50.3605   130.5955 H6            1 RES     
   14335 H6        -193.0795   -49.2562   129.1583 H6            1 RES     
   14336 H6        -194.4676   -48.9129   131.6819 H6            1 RES     
   14337 H6        -194.5720   -46.6239   129.8180 H6            1 RES     
   14338 H6        -195.1999   -47.9685   128.9818 H6            1 RES     
   14339 H6        -196.7225   -48.4605   131.0342 H6            1 RES     
   14340 H6        -196.0613   -46.9332   131.7444 H6            1 RES     
   14341 H6        -197.0468   -45.6862   129.7112 H6            1 RES     
   14342 H6        -197.7214   -47.2708   129.1609 H6            1 RES     
   14343 H6        -198.3121   -45.8010   131.8195 H6            1 RES     
   14344 H6        -198.9181   -47.4565   131.4233 H6            1 RES     
   14345 H6        -199.5914   -44.9165   129.8040 H6            1 RES     
   14346 H6        -200.1784   -46.5969   129.4855 H6            1 RES     
   14347 H6        -201.2624   -46.6367   131.7609 H6            1 RES     
   14348 H6        -200.7004   -44.9414   132.0432 H6            1 RES     
   14349 H6        -201.8878   -45.2948   130.7321 H6            1 RES     
   14350 H6        -192.0806   -48.5367   131.6723 H6            1 RES     
   14351 H6        -192.0890   -47.6353   130.1333 H6            1 RES     
   14352 H6        -193.0677   -46.4564   132.8155 H6            1 RES     
   14353 H6        -191.4388   -46.4624   132.1037 H6            1 RES     
   14354 H6        -192.3143   -45.2854   130.0202 H6            1 RES     
   14355 H6        -193.7901   -44.8698   130.9751 H6            1 RES     
   14356 H6        -192.1638   -43.7740   132.7145 H6            1 RES     
   14357 H6        -190.8266   -44.2844   131.6470 H6            1 RES     
   14358 H6        -191.8761   -42.9092   129.7608 H6            1 RES     
   14359 H6        -192.9357   -42.1737   131.0132 H6            1 RES     
   14360 H6        -190.9349   -40.7874   130.4675 H6            1 RES     
   14361 H6        -189.8324   -42.1653   130.7994 H6            1 RES     
   14362 H6        -190.4130   -42.0893   133.2193 H6            1 RES     
   14363 H6        -191.5651   -40.7271   132.9126 H6            1 RES     
   14364 H6        -189.6672   -39.3123   132.0821 H6            1 RES     
   14365 H6        -188.5158   -40.6756   132.3636 H6            1 RES     
   14366 H6        -189.3570   -39.9017   133.7561 H6            1 RES     
   14367 H6        -193.5369   -51.8279   127.0323 H6            1 RES     
   14368 H6        -193.4974   -50.0819   127.2162 H6            1 RES     
   14369 H6        -191.4523   -50.7576   126.5232 H6            1 RES     
   14370 H6        -190.9816   -49.9026   129.4522 H6            1 RES     
   14371 H6        -191.4510   -48.8517   128.0151 H6            1 RES     
   14372 H6        -188.7865   -50.1814   128.4945 H6            1 RES     
   14373 H6        -189.3359   -49.2878   126.9841 H6            1 RES     
   14374 H6        -187.9498   -47.9190   128.2922 H6            1 RES     
   14375 H6        -189.5992   -47.2265   128.4611 H6            1 RES     
   14376 H6        -188.2666   -49.1744   130.4803 H6            1 RES     
   14377 H6        -189.7426   -48.2008   130.7881 H6            1 RES     
   14378 H6        -186.8445   -47.1896   130.2681 H6            1 RES     
   14379 H6        -187.6152   -47.3449   131.8841 H6            1 RES     
   14380 H6        -187.6089   -45.0011   131.1124 H6            1 RES     
   14381 H6        -189.2663   -45.6614   131.3240 H6            1 RES     
   14382 H6        -188.5832   -45.4365   129.6599 H6            1 RES     
   14383 H6        -190.5007   -52.5641   128.8320 H6            1 RES     
   14384 H6        -191.2896   -53.1618   127.3233 H6            1 RES     
   14385 H6        -189.8462   -52.1412   125.8303 H6            1 RES     
   14386 H6        -188.7339   -51.5196   127.0175 H6            1 RES     
   14387 H6        -187.9962   -53.2748   125.6926 H6            1 RES     
   14388 H6        -189.0461   -54.4994   126.4217 H6            1 RES     
   14389 H6        -187.6425   -54.4066   128.5054 H6            1 RES     
   14390 H6        -186.9465   -52.8122   128.0276 H6            1 RES     
   14391 H6        -185.8468   -53.6908   126.0666 H6            1 RES     
   14392 H6        -186.4506   -55.3627   126.3687 H6            1 RES     
   14393 H6        -185.0056   -55.5422   128.3649 H6            1 RES     
   14394 H6        -184.5081   -53.8087   128.2149 H6            1 RES     
   14395 H6        -183.5080   -54.2175   125.9835 H6            1 RES     
   14396 H6        -184.0146   -55.9468   126.0280 H6            1 RES     
   14397 H6        -182.5071   -56.3562   127.9634 H6            1 RES     
   14398 H6        -182.0086   -54.6110   127.9574 H6            1 RES     
   14399 H6        -181.6172   -55.6718   126.5553 H6            1 RES     
   14400 C0        -202.6498   -46.2261   121.6329 C0            1 RES     
   14401 C1        -203.5276   -47.2739   121.6163 C1            1 RES     
   14402 C1        -204.0751   -47.5335   122.8203 C1            1 RES     
   14403 C1        -203.5915   -46.7598   123.7411 C1            1 RES     
   14404 C1        -202.5826   -45.8513   123.1687 C1            1 RES     
   14405 C1        -201.4271   -46.4181   123.9798 C1            1 RES     
   14406 C1        -201.7442   -47.1625   125.0790 C1            1 RES     
   14407 S2        -203.5311   -47.1737   125.4494 S2            1 RES     
   14408 C1        -200.7210   -47.9564   125.8807 C1            1 RES     
   14409 C1        -199.3228   -47.7090   125.7480 C1            1 RES     
   14410 N3        -198.3979   -48.4319   126.4439 N3            1 RES     
   14411 C1        -198.7341   -49.4369   127.2831 C1            1 RES     
   14412 C1        -200.0772   -49.7515   127.4479 C1            1 RES     
   14413 C1        -201.0780   -49.0066   126.7527 C1            1 RES     
   14414 N3        -202.3561   -49.4177   126.9872 N3            1 RES     
   14415 S2        -202.1501   -50.6729   128.0485 S2            1 RES     
   14416 N3        -200.5126   -50.7560   128.2468 N3            1 RES     
   14417 S2        -205.0523   -48.8922   122.8367 S2            1 RES     
   14418 C1        -204.7897   -49.1877   121.1902 C1            1 RES     
   14419 C1        -203.8990   -48.2419   120.6681 C1            1 RES     
   14420 C0        -203.2593   -45.0985   120.6678 C0            1 RES     
   14421 C0        -204.5762   -44.6789   119.8405 C0            1 RES     
   14422 C0        -205.1752   -45.7674   118.8949 C0            1 RES     
   14423 C0        -206.6407   -46.0748   119.2564 C0            1 RES     
   14424 C0        -207.2421   -47.2683   118.4925 C0            1 RES     
   14425 C0        -208.7339   -47.4069   118.8512 C0            1 RES     
   14426 C0        -209.3681   -48.6873   118.2938 C0            1 RES     
   14427 C0        -210.8549   -48.7505   118.6513 C0            1 RES     
   14428 C0        -204.1315   -43.4026   118.9967 C0            1 RES     
   14429 C0        -205.0063   -42.5809   117.9986 C0            1 RES     
   14430 C0        -205.1380   -43.1202   116.5412 C0            1 RES     
   14431 C0        -205.3591   -41.9620   115.5202 C0            1 RES     
   14432 C0        -205.3914   -42.4293   114.0502 C0            1 RES     
   14433 C0        -205.1024   -41.3061   113.0206 C0            1 RES     
   14434 C0        -206.0582   -40.1049   113.0619 C0            1 RES     
   14435 C0        -205.6963   -39.0878   111.9709 C0            1 RES     
   14436 C0        -201.2545   -46.5534   120.9123 C0            1 RES     
   14437 C0        -200.0571   -45.4998   120.5350 C0            1 RES     
   14438 C0        -200.5202   -44.3630   119.5378 C0            1 RES     
   14439 C0        -199.4666   -43.5063   118.8432 C0            1 RES     
   14440 C0        -200.0008   -42.5401   117.7705 C0            1 RES     
   14441 C0        -200.7625   -41.3370   118.3644 C0            1 RES     
   14442 C0        -200.8312   -40.1511   117.3853 C0            1 RES     
   14443 C0        -201.6702   -40.4226   116.1486 C0            1 RES     
   14444 C0        -199.0686   -44.9742   121.6730 C0            1 RES     
   14445 C0        -197.6112   -44.7462   121.1181 C0            1 RES     
   14446 C0        -196.3858   -44.3981   122.0074 C0            1 RES     
   14447 C0        -196.0870   -42.8991   122.3385 C0            1 RES     
   14448 C0        -194.5408   -42.7112   122.4334 C0            1 RES     
   14449 C0        -194.0124   -41.2908   122.7293 C0            1 RES     
   14450 C0        -192.4768   -41.2664   122.5240 C0            1 RES     
   14451 C0        -191.8369   -39.9175   122.8486 C0            1 RES     
   14452 H4        -200.4254   -46.3168   123.6531 H4            1 RES     
   14453 H5        -198.9574   -46.9238   125.1065 H5            1 RES     
   14454 H4        -203.5347   -48.2950   119.6544 H4            1 RES     
   14455 H6        -203.0046   -44.1658   121.2151 H6            1 RES     
   14456 H6        -202.7148   -45.2327   119.7549 H6            1 RES     
   14457 H6        -205.3582   -44.3514   120.5604 H6            1 RES     
   14458 H6        -205.1327   -45.4640   117.8335 H6            1 RES     
   14459 H6        -204.5631   -46.6617   118.9023 H6            1 RES     
   14460 H6        -206.7037   -46.3137   120.3409 H6            1 RES     
   14461 H6        -207.2402   -45.1598   119.0544 H6            1 RES     
   14462 H6        -207.1424   -47.1321   117.3930 H6            1 RES     
   14463 H6        -206.6921   -48.1886   118.7895 H6            1 RES     
   14464 H6        -209.2765   -46.5191   118.4554 H6            1 RES     
   14465 H6        -208.8467   -47.4275   119.9572 H6            1 RES     
   14466 H6        -209.2612   -48.7273   117.1886 H6            1 RES     
   14467 H6        -208.8566   -49.5702   118.7363 H6            1 RES     
   14468 H6        -210.9941   -48.7037   119.7532 H6            1 RES     
   14469 H6        -211.3995   -47.9020   118.1840 H6            1 RES     
   14470 H6        -211.2953   -49.7001   118.2812 H6            1 RES     
   14471 H6        -203.8231   -42.6622   119.7671 H6            1 RES     
   14472 H6        -203.2180   -43.6509   118.4117 H6            1 RES     
   14473 H6        -205.9807   -42.2693   118.4258 H6            1 RES     
   14474 H6        -204.4039   -41.6517   117.8850 H6            1 RES     
   14475 H6        -204.1725   -43.5927   116.2505 H6            1 RES     
   14476 H6        -205.9424   -43.8801   116.4687 H6            1 RES     
   14477 H6        -206.2762   -41.3807   115.7527 H6            1 RES     
   14478 H6        -204.4992   -41.2811   115.6090 H6            1 RES     
   14479 H6        -204.5835   -43.1769   113.8916 H6            1 RES     
   14480 H6        -206.3629   -42.9249   113.8398 H6            1 RES     
   14481 H6        -205.1415   -41.7576   112.0045 H6            1 RES     
   14482 H6        -204.0664   -40.9324   113.1824 H6            1 RES     
   14483 H6        -205.9835   -39.6006   114.0485 H6            1 RES     
   14484 H6        -207.1028   -40.4441   112.9030 H6            1 RES     
   14485 H6        -205.7892   -39.5472   110.9630 H6            1 RES     
   14486 H6        -204.6545   -38.7223   112.1011 H6            1 RES     
   14487 H6        -206.3812   -38.2148   112.0213 H6            1 RES     
   14488 H6        -200.7829   -47.3849   121.4807 H6            1 RES     
   14489 H6        -201.5119   -47.0078   119.9283 H6            1 RES     
   14490 H6        -199.4088   -46.1732   119.9334 H6            1 RES     
   14491 H6        -201.1906   -43.6552   120.0611 H6            1 RES     
   14492 H6        -201.0252   -44.8711   118.6885 H6            1 RES     
   14493 H6        -198.9668   -42.8557   119.5823 H6            1 RES     
   14494 H6        -198.7545   -44.1988   118.3444 H6            1 RES     
   14495 H6        -199.0924   -42.1383   117.2739 H6            1 RES     
   14496 H6        -200.6038   -43.0707   117.0003 H6            1 RES     
   14497 H6        -200.1921   -40.9563   119.2380 H6            1 RES     
   14498 H6        -201.7711   -41.6347   118.7208 H6            1 RES     
   14499 H6        -199.8002   -39.8763   117.0731 H6            1 RES     
   14500 H6        -201.2720   -39.2774   117.9124 H6            1 RES     
   14501 H6        -201.6588   -39.5288   115.4884 H6            1 RES     
   14502 H6        -202.7032   -40.6059   116.4769 H6            1 RES     
   14503 H6        -201.2888   -41.2908   115.5732 H6            1 RES     
   14504 H6        -199.4929   -44.0981   122.2108 H6            1 RES     
   14505 H6        -198.8991   -45.7924   122.3915 H6            1 RES     
   14506 H6        -197.3516   -45.7306   120.6723 H6            1 RES     
   14507 H6        -197.5312   -44.0389   120.2995 H6            1 RES     
   14508 H6        -195.5565   -44.6928   121.3256 H6            1 RES     
   14509 H6        -196.2855   -45.0522   122.8981 H6            1 RES     
   14510 H6        -196.6161   -42.5872   123.2651 H6            1 RES     
   14511 H6        -196.4248   -42.2469   121.5038 H6            1 RES     
   14512 H6        -194.1304   -42.9937   121.4375 H6            1 RES     
   14513 H6        -194.1209   -43.4052   123.1929 H6            1 RES     
   14514 H6        -194.2686   -41.0080   123.7731 H6            1 RES     
   14515 H6        -194.4682   -40.5539   122.0327 H6            1 RES     
   14516 H6        -192.2508   -41.5033   121.4597 H6            1 RES     
   14517 H6        -191.9944   -42.0383   123.1618 H6            1 RES     
   14518 H6        -191.9764   -39.6701   123.9213 H6            1 RES     
   14519 H6        -192.2679   -39.1113   122.2192 H6            1 RES     
   14520 H6        -190.7438   -39.9722   122.6436 H6            1 RES     
   14521 C0        -205.9068   -56.8229   116.1660 C0            1 RES     
   14522 C1        -206.1236   -57.5724   117.2885 C1            1 RES     
   14523 C1        -207.1485   -57.1258   118.0414 C1            1 RES     
   14524 C1        -207.6604   -56.0390   117.5541 C1            1 RES     
   14525 C1        -206.9395   -55.6359   116.3340 C1            1 RES     
   14526 C1        -206.4202   -54.3311   116.9190 C1            1 RES     
   14527 C1        -207.0411   -53.8606   118.0398 C1            1 RES     
   14528 S2        -208.5127   -54.8327   118.5088 S2            1 RES     
   14529 C1        -206.5247   -52.6824   118.8554 C1            1 RES     
   14530 C1        -205.5576   -51.7801   118.3224 C1            1 RES     
   14531 N3        -205.0713   -50.7362   119.0545 N3            1 RES     
   14532 C1        -205.4501   -50.4968   120.3299 C1            1 RES     
   14533 C1        -206.3736   -51.3466   120.9256 C1            1 RES     
   14534 C1        -206.9215   -52.4397   120.1875 C1            1 RES     
   14535 N3        -207.8068   -53.2071   120.8838 N3            1 RES     
   14536 S2        -207.8505   -52.4664   122.3650 S2            1 RES     
   14537 N3        -206.7972   -51.2043   122.2051 N3            1 RES     
   14538 S2        -207.3405   -57.9594   119.4799 S2            1 RES     
   14539 C1        -206.0388   -58.9876   119.1397 C1            1 RES     
   14540 C1        -205.4450   -58.6255   117.9244 C1            1 RES     
   14541 C0        -206.1570   -57.7899   114.9103 C0            1 RES     
   14542 C0        -206.7248   -59.2362   114.4853 C0            1 RES     
   14543 C0        -206.1624   -60.4597   115.2754 C0            1 RES     
   14544 C0        -207.2947   -61.2532   115.9546 C0            1 RES     
   14545 C0        -206.8066   -62.3621   116.9041 C0            1 RES     
   14546 C0        -208.0179   -63.1546   117.4316 C0            1 RES     
   14547 C0        -207.6472   -64.1501   118.5380 C0            1 RES     
   14548 C0        -208.8820   -64.9304   118.9948 C0            1 RES     
   14549 C0        -206.3674   -59.3699   112.9383 C0            1 RES     
   14550 C0        -206.6700   -60.5820   112.0024 C0            1 RES     
   14551 C0        -205.6698   -61.7784   112.0247 C0            1 RES     
   14552 C0        -205.6255   -62.5130   110.6495 C0            1 RES     
   14553 C0        -204.5747   -63.6407   110.5828 C0            1 RES     
   14554 C0        -204.1558   -64.0335   109.1421 C0            1 RES     
   14555 C0        -205.2920   -64.5138   108.2275 C0            1 RES     
   14556 C0        -204.7454   -64.9133   106.8501 C0            1 RES     
   14557 C0        -204.3695   -56.4132   115.9616 C0            1 RES     
   14558 C0        -203.6900   -55.7228   114.6396 C0            1 RES     
   14559 C0        -203.8215   -56.6102   113.3373 C0            1 RES     
   14560 C0        -202.9753   -56.2697   112.1147 C0            1 RES     
   14561 C0        -203.0474   -57.2815   110.9569 C0            1 RES     
   14562 C0        -204.3873   -57.2340   110.1936 C0            1 RES     
   14563 C0        -204.2725   -57.8301   108.7789 C0            1 RES     
   14564 C0        -204.0006   -59.3244   108.7615 C0            1 RES     
   14565 C0        -203.8906   -54.1636   114.3614 C0            1 RES     
   14566 C0        -202.6161   -53.5234   113.6908 C0            1 RES     
   14567 C0        -202.4333   -52.0000   113.4468 C0            1 RES     
   14568 C0        -202.9802   -51.3700   112.1240 C0            1 RES     
   14569 C0        -202.0272   -50.2107   111.6962 C0            1 RES     
   14570 C0        -202.3631   -49.4571   110.3911 C0            1 RES     
   14571 C0        -201.1732   -48.5395   110.0131 C0            1 RES     
   14572 C0        -201.4223   -47.6972   108.7629 C0            1 RES     
   14573 H4        -205.5573   -53.8591   116.5278 H4            1 RES     
   14574 H5        -205.1986   -51.8861   117.3116 H5            1 RES     
   14575 H4        -204.5495   -59.1024   117.5587 H4            1 RES     
   14576 H6        -206.6584   -57.1073   114.1913 H6            1 RES     
   14577 H6        -205.1675   -58.0806   114.6203 H6            1 RES     
   14578 H6        -207.8333   -59.2227   114.5754 H6            1 RES     
   14579 H6        -205.5940   -61.1482   114.6248 H6            1 RES     
   14580 H6        -205.4094   -60.1437   115.9880 H6            1 RES     
   14581 H6        -207.9154   -60.5543   116.5575 H6            1 RES     
   14582 H6        -207.9272   -61.6964   115.1540 H6            1 RES     
   14583 H6        -206.1132   -63.0592   116.3837 H6            1 RES     
   14584 H6        -206.2650   -61.8861   117.7512 H6            1 RES     
   14585 H6        -208.4818   -63.7000   116.5793 H6            1 RES     
   14586 H6        -208.7670   -62.4475   117.8501 H6            1 RES     
   14587 H6        -206.8803   -64.8683   118.1767 H6            1 RES     
   14588 H6        -207.2354   -63.5923   119.4076 H6            1 RES     
   14589 H6        -209.6719   -64.2361   119.3547 H6            1 RES     
   14590 H6        -209.2890   -65.5331   118.1545 H6            1 RES     
   14591 H6        -208.6127   -65.6172   119.8246 H6            1 RES     
   14592 H6        -206.8972   -58.5154   112.4628 H6            1 RES     
   14593 H6        -205.2789   -59.1866   112.7971 H6            1 RES     
   14594 H6        -207.7276   -60.9118   112.0426 H6            1 RES     
   14595 H6        -206.5221   -60.1303   110.9958 H6            1 RES     
   14596 H6        -204.6427   -61.3777   112.1810 H6            1 RES     
   14597 H6        -205.9073   -62.4809   112.8492 H6            1 RES     
   14598 H6        -206.6233   -62.9081   110.3641 H6            1 RES     
   14599 H6        -205.3302   -61.7705   109.8930 H6            1 RES     
   14600 H6        -203.6373   -63.2892   111.0670 H6            1 RES     
   14601 H6        -204.9419   -64.5238   111.1477 H6            1 RES     
   14602 H6        -203.3938   -64.8406   109.2175 H6            1 RES     
   14603 H6        -203.6689   -63.1558   108.6608 H6            1 RES     
   14604 H6        -206.0304   -63.6964   108.0868 H6            1 RES     
   14605 H6        -205.7994   -65.3911   108.6796 H6            1 RES     
   14606 H6        -204.0231   -65.7528   106.9454 H6            1 RES     
   14607 H6        -204.2320   -64.0551   106.3644 H6            1 RES     
   14608 H6        -205.5768   -65.2411   106.1904 H6            1 RES     
   14609 H6        -204.0817   -55.7869   116.8344 H6            1 RES     
   14610 H6        -203.7785   -57.3487   116.0911 H6            1 RES     
   14611 H6        -202.6199   -55.7877   114.9335 H6            1 RES     
   14612 H6        -204.8717   -56.6120   112.9890 H6            1 RES     
   14613 H6        -203.4664   -57.6276   113.6083 H6            1 RES     
   14614 H6        -203.3191   -55.3166   111.6756 H6            1 RES     
   14615 H6        -201.9166   -56.2198   112.4495 H6            1 RES     
   14616 H6        -202.2564   -56.9573   110.2480 H6            1 RES     
   14617 H6        -202.8011   -58.3131   111.2939 H6            1 RES     
   14618 H6        -204.6647   -56.1702   110.0359 H6            1 RES     
   14619 H6        -205.2008   -57.7143   110.7771 H6            1 RES     
   14620 H6        -203.4620   -57.3058   108.2274 H6            1 RES     
   14621 H6        -205.2258   -57.6497   108.2365 H6            1 RES     
   14622 H6        -203.9175   -59.6747   107.7102 H6            1 RES     
   14623 H6        -204.8561   -59.8272   109.2346 H6            1 RES     
   14624 H6        -203.0612   -59.5794   109.2933 H6            1 RES     
   14625 H6        -204.8398   -53.9640   113.8174 H6            1 RES     
   14626 H6        -203.9108   -53.6374   115.3294 H6            1 RES     
   14627 H6        -201.7984   -53.7849   114.3966 H6            1 RES     
   14628 H6        -202.3193   -53.9625   112.7442 H6            1 RES     
   14629 H6        -201.3272   -51.9496   113.3308 H6            1 RES     
   14630 H6        -202.6679   -51.3784   114.3356 H6            1 RES     
   14631 H6        -204.0329   -51.0366   112.2523 H6            1 RES     
   14632 H6        -202.9450   -52.1160   111.3003 H6            1 RES     
   14633 H6        -201.0257   -50.6719   111.5393 H6            1 RES     
   14634 H6        -201.9434   -49.4668   112.5174 H6            1 RES     
   14635 H6        -203.2862   -48.8553   110.5355 H6            1 RES     
   14636 H6        -202.5263   -50.1756   109.5587 H6            1 RES     
   14637 H6        -200.2755   -49.1709   109.8250 H6            1 RES     
   14638 H6        -200.9424   -47.8487   110.8528 H6            1 RES     
   14639 H6        -202.2686   -46.9987   108.9281 H6            1 RES     
   14640 H6        -201.6351   -48.3421   107.8850 H6            1 RES     
   14641 H6        -200.5127   -47.0949   108.5401 H6            1 RES     
   14642 C0        -200.9243   -64.2939   124.6599 C0            1 RES     
   14643 C1        -201.4875   -63.7382   125.7747 C1            1 RES     
   14644 C1        -202.8298   -63.8541   125.8115 C1            1 RES     
   14645 C1        -203.2895   -64.4185   124.7388 C1            1 RES     
   14646 C1        -202.1866   -64.7388   123.8159 C1            1 RES     
   14647 C1        -202.6634   -63.8000   122.7180 C1            1 RES     
   14648 C1        -203.9578   -63.3718   122.7836 C1            1 RES     
   14649 S2        -204.9152   -64.1762   124.1129 S2            1 RES     
   14650 C1        -204.5313   -62.2867   121.8817 C1            1 RES     
   14651 C1        -203.8615   -61.8851   120.6885 C1            1 RES     
   14652 N3        -204.3554   -60.8970   119.8873 N3            1 RES     
   14653 C1        -205.4901   -60.2204   120.1737 C1            1 RES     
   14654 C1        -206.1873   -60.5407   121.3319 C1            1 RES     
   14655 C1        -205.7146   -61.5817   122.1878 C1            1 RES     
   14656 N3        -206.4771   -61.7936   123.2974 N3            1 RES     
   14657 S2        -207.6887   -60.6762   123.1303 S2            1 RES     
   14658 N3        -207.3200   -59.9042   121.7175 N3            1 RES     
   14659 S2        -203.5384   -63.0667   127.1074 S2            1 RES     
   14660 C1        -202.0411   -62.5386   127.6961 C1            1 RES     
   14661 C1        -201.0147   -62.9486   126.8363 C1            1 RES     
   14662 C0        -199.9728   -65.4821   125.1673 C0            1 RES     
   14663 C0        -199.5758   -66.3582   126.4593 C0            1 RES     
   14664 C0        -199.2159   -65.5604   127.7522 C0            1 RES     
   14665 C0        -200.1309   -65.9583   128.9259 C0            1 RES     
   14666 C0        -199.9629   -65.0840   130.1816 C0            1 RES     
   14667 C0        -200.8405   -65.6444   131.3171 C0            1 RES     
   14668 C0        -200.8925   -64.7252   132.5438 C0            1 RES     
   14669 C0        -201.7476   -65.3506   133.6483 C0            1 RES     
   14670 C0        -198.3285   -67.2297   125.9866 C0            1 RES     
   14671 C0        -197.5193   -68.2571   126.8388 C0            1 RES     
   14672 C0        -196.3929   -67.7002   127.7626 C0            1 RES     
   14673 C0        -195.2481   -68.7410   127.9602 C0            1 RES     
   14674 C0        -194.0571   -68.2039   128.7809 C0            1 RES     
   14675 C0        -192.7365   -68.9897   128.5717 C0            1 RES     
   14676 C0        -192.7927   -70.4861   128.9121 C0            1 RES     
   14677 C0        -191.4191   -71.1395   128.7070 C0            1 RES     
   14678 C0        -199.8758   -63.3260   123.9270 C0            1 RES     
   14679 C0        -198.8452   -63.7116   122.7123 C0            1 RES     
   14680 C0        -197.8116   -64.8411   123.1084 C0            1 RES     
   14681 C0        -196.5965   -65.0845   122.2191 C0            1 RES     
   14682 C0        -195.5641   -66.0856   122.7681 C0            1 RES     
   14683 C0        -196.0500   -67.5488   122.7120 C0            1 RES     
   14684 C0        -194.8827   -68.5516   122.7554 C0            1 RES     
   14685 C0        -194.1311   -68.5634   124.0753 C0            1 RES     
   14686 C0        -199.3898   -63.8529   121.2183 C0            1 RES     
   14687 C0        -198.3242   -63.3698   120.1624 C0            1 RES     
   14688 C0        -198.6087   -63.2263   118.6418 C0            1 RES     
   14689 C0        -198.4123   -64.4672   117.7103 C0            1 RES     
   14690 C0        -197.9116   -63.9682   116.3191 C0            1 RES     
   14691 C0        -197.6242   -65.0352   115.2406 C0            1 RES     
   14692 C0        -196.8994   -64.3674   114.0450 C0            1 RES     
   14693 C0        -196.6177   -65.3243   112.8876 C0            1 RES     
   14694 H4        -201.9947   -63.4233   121.9891 H4            1 RES     
   14695 H5        -202.9520   -62.3701   120.3734 H5            1 RES     
   14696 H4        -199.9890   -62.6501   126.9840 H4            1 RES     
   14697 H6        -200.1342   -66.2549   124.3856 H6            1 RES     
   14698 H6        -198.9964   -65.0415   125.1519 H6            1 RES     
   14699 H6        -200.4106   -67.0581   126.6837 H6            1 RES     
   14700 H6        -198.1661   -65.7173   128.0581 H6            1 RES     
   14701 H6        -199.2431   -64.4932   127.5652 H6            1 RES     
   14702 H6        -201.1919   -65.8702   128.6039 H6            1 RES     
   14703 H6        -199.9187   -67.0209   129.1776 H6            1 RES     
   14704 H6        -198.9024   -65.0629   130.5167 H6            1 RES     
   14705 H6        -200.2792   -64.0469   129.9325 H6            1 RES     
   14706 H6        -200.4411   -66.6401   131.6139 H6            1 RES     
   14707 H6        -201.8812   -65.7752   130.9482 H6            1 RES     
   14708 H6        -199.8704   -64.5427   132.9392 H6            1 RES     
   14709 H6        -201.3435   -63.7516   132.2512 H6            1 RES     
   14710 H6        -202.7763   -65.5530   133.2787 H6            1 RES     
   14711 H6        -201.2947   -66.3057   133.9914 H6            1 RES     
   14712 H6        -201.8149   -64.6598   134.5149 H6            1 RES     
   14713 H6        -198.7223   -67.8272   125.1352 H6            1 RES     
   14714 H6        -197.5489   -66.5554   125.5672 H6            1 RES     
   14715 H6        -198.1614   -69.0004   127.3528 H6            1 RES     
   14716 H6        -196.9655   -68.8151   126.0507 H6            1 RES     
   14717 H6        -195.9187   -66.8292   127.2562 H6            1 RES     
   14718 H6        -196.8052   -67.3652   128.7359 H6            1 RES     
   14719 H6        -195.6247   -69.6830   128.4118 H6            1 RES     
   14720 H6        -194.8518   -68.9826   126.9625 H6            1 RES     
   14721 H6        -193.8285   -67.1675   128.4488 H6            1 RES     
   14722 H6        -194.3343   -68.1660   129.8558 H6            1 RES     
   14723 H6        -191.9525   -68.5108   129.1993 H6            1 RES     
   14724 H6        -192.4248   -68.8860   127.5081 H6            1 RES     
   14725 H6        -193.5239   -70.9939   128.2483 H6            1 RES     
   14726 H6        -193.1008   -70.6246   129.9691 H6            1 RES     
   14727 H6        -190.6632   -70.6778   129.3787 H6            1 RES     
   14728 H6        -191.0790   -71.0231   127.6549 H6            1 RES     
   14729 H6        -191.4748   -72.2246   128.9376 H6            1 RES     
   14730 H6        -200.4407   -62.4273   123.5954 H6            1 RES     
   14731 H6        -199.1973   -62.9428   124.7232 H6            1 RES     
   14732 H6        -198.2537   -62.7712   122.6739 H6            1 RES     
   14733 H6        -198.3313   -65.8148   123.1859 H6            1 RES     
   14734 H6        -197.3545   -64.5302   124.0722 H6            1 RES     
   14735 H6        -196.9190   -65.5152   121.2548 H6            1 RES     
   14736 H6        -196.0803   -64.1084   122.0911 H6            1 RES     
   14737 H6        -194.6963   -66.0033   122.0799 H6            1 RES     
   14738 H6        -195.2181   -65.8047   123.7878 H6            1 RES     
   14739 H6        -196.5394   -67.7193   121.7297 H6            1 RES     
   14740 H6        -196.7990   -67.7554   123.5052 H6            1 RES     
   14741 H6        -194.1717   -68.3187   121.9331 H6            1 RES     
   14742 H6        -195.2830   -69.5737   122.5807 H6            1 RES     
   14743 H6        -193.2995   -69.2985   124.0226 H6            1 RES     
   14744 H6        -194.8335   -68.8805   124.8592 H6            1 RES     
   14745 H6        -193.7067   -67.5677   124.3177 H6            1 RES     
   14746 H6        -199.7933   -64.8709   121.0246 H6            1 RES     
   14747 H6        -200.1914   -63.1116   121.0688 H6            1 RES     
   14748 H6        -198.0890   -62.3351   120.4929 H6            1 RES     
   14749 H6        -197.3746   -63.8939   120.1876 H6            1 RES     
   14750 H6        -197.7832   -62.5385   118.3502 H6            1 RES     
   14751 H6        -199.5466   -62.6776   118.4171 H6            1 RES     
   14752 H6        -199.3495   -65.0612   117.6427 H6            1 RES     
   14753 H6        -197.6077   -65.1229   118.1090 H6            1 RES     
   14754 H6        -196.9455   -63.4459   116.5041 H6            1 RES     
   14755 H6        -198.6308   -63.2323   115.8995 H6            1 RES     
   14756 H6        -198.5798   -65.4946   114.9073 H6            1 RES     
   14757 H6        -196.9631   -65.8308   115.6478 H6            1 RES     
   14758 H6        -195.9240   -63.9604   114.3955 H6            1 RES     
   14759 H6        -197.5075   -63.5235   113.6534 H6            1 RES     
   14760 H6        -197.5680   -65.7037   112.4580 H6            1 RES     
   14761 H6        -195.9905   -66.1772   113.2206 H6            1 RES     
   14762 H6        -196.0676   -64.7791   112.0877 H6            1 RES     
   14763 C0        -199.8942   -55.7396   133.5228 C0            1 RES     
   14764 C1        -201.1760   -55.2651   133.4973 C1            1 RES     
   14765 C1        -202.0938   -56.1808   133.8659 C1            1 RES     
   14766 C1        -201.5495   -57.3329   134.1040 C1            1 RES     
   14767 C1        -200.0949   -57.2684   133.8782 C1            1 RES     
   14768 C1        -200.1013   -58.2620   132.7263 C1            1 RES     
   14769 C1        -201.2039   -59.0557   132.5949 C1            1 RES     
   14770 S2        -202.3911   -58.8713   133.9686 S2            1 RES     
   14771 C1        -201.4519   -59.9582   131.3932 C1            1 RES     
   14772 C1        -200.4006   -60.2949   130.4905 C1            1 RES     
   14773 N3        -200.6189   -61.0827   129.3979 N3            1 RES     
   14774 C1        -201.8369   -61.5779   129.0836 C1            1 RES     
   14775 C1        -202.9159   -61.2748   129.9045 C1            1 RES     
   14776 C1        -202.7264   -60.4692   131.0685 C1            1 RES     
   14777 N3        -203.8612   -60.2323   131.7852 N3            1 RES     
   14778 S2        -205.0174   -61.0483   130.9239 S2            1 RES     
   14779 N3        -204.1785   -61.7029   129.6607 N3            1 RES     
   14780 S2        -203.6736   -55.6487   133.7159 S2            1 RES     
   14781 C1        -203.1829   -54.1290   133.1529 C1            1 RES     
   14782 C1        -201.7875   -54.0837   133.0455 C1            1 RES     
   14783 C0        -199.1022   -54.8699   134.6141 C0            1 RES     
   14784 C0        -199.2937   -53.7854   135.7896 C0            1 RES     
   14785 C0        -200.1289   -52.5161   135.4304 C0            1 RES     
   14786 C0        -201.3409   -52.3623   136.3686 C0            1 RES     
   14787 C0        -202.3157   -51.2424   135.9620 C0            1 RES     
   14788 C0        -203.4183   -51.1103   137.0298 C0            1 RES     
   14789 C0        -204.5456   -50.1575   136.6128 C0            1 RES     
   14790 C0        -205.5895   -50.0401   137.7258 C0            1 RES     
   14791 C0        -197.8110   -53.3697   136.1987 C0            1 RES     
   14792 C0        -197.3890   -52.3325   137.2864 C0            1 RES     
   14793 C0        -197.3735   -50.8268   136.8805 C0            1 RES     
   14794 C0        -196.3109   -50.0257   137.6941 C0            1 RES     
   14795 C0        -196.1798   -48.5512   137.2590 C0            1 RES     
   14796 C0        -194.8389   -47.8864   137.6658 C0            1 RES     
   14797 C0        -194.5351   -47.8703   139.1710 C0            1 RES     
   14798 C0        -193.2086   -47.1494   139.4474 C0            1 RES     
   14799 C0        -199.0692   -55.4159   132.1858 C0            1 RES     
   14800 C0        -197.4622   -55.6173   131.9336 C0            1 RES     
   14801 C0        -196.5663   -54.7628   132.9175 C0            1 RES     
   14802 C0        -195.0823   -54.5872   132.6116 C0            1 RES     
   14803 C0        -194.3283   -53.6085   133.5298 C0            1 RES     
   14804 C0        -194.0939   -54.1676   134.9485 C0            1 RES     
   14805 C0        -192.9351   -53.4560   135.6701 C0            1 RES     
   14806 C0        -193.2145   -51.9984   135.9932 C0            1 RES     
   14807 C0        -196.8749   -57.0751   131.6536 C0            1 RES     
   14808 C0        -195.6612   -57.0304   130.6492 C0            1 RES     
   14809 C0        -194.9808   -58.2918   130.0494 C0            1 RES     
   14810 C0        -193.8151   -58.9750   130.8370 C0            1 RES     
   14811 C0        -192.7964   -59.5573   129.8082 C0            1 RES     
   14812 C0        -191.5411   -60.2605   130.3684 C0            1 RES     
   14813 C0        -190.5480   -60.5275   129.2094 C0            1 RES     
   14814 C0        -189.2888   -61.2771   129.6423 C0            1 RES     
   14815 H4        -199.3261   -58.2719   132.0057 H4            1 RES     
   14816 H5        -199.3931   -59.9517   130.6604 H5            1 RES     
   14817 H4        -201.2713   -53.2325   132.6307 H4            1 RES     
   14818 H6        -198.4508   -55.6349   135.0884 H6            1 RES     
   14819 H6        -198.5729   -54.1511   134.0217 H6            1 RES     
   14820 H6        -199.7564   -54.2900   136.6661 H6            1 RES     
   14821 H6        -199.5249   -51.5928   135.4846 H6            1 RES     
   14822 H6        -200.4268   -52.5343   134.3885 H6            1 RES     
   14823 H6        -201.9175   -53.3135   136.3744 H6            1 RES     
   14824 H6        -200.9551   -52.1696   137.3941 H6            1 RES     
   14825 H6        -201.7878   -50.2686   135.8603 H6            1 RES     
   14826 H6        -202.7664   -51.5084   134.9803 H6            1 RES     
   14827 H6        -202.9540   -50.7478   137.9743 H6            1 RES     
   14828 H6        -203.8712   -52.1083   137.2174 H6            1 RES     
   14829 H6        -204.1409   -49.1470   136.3902 H6            1 RES     
   14830 H6        -205.0404   -50.5554   135.6997 H6            1 RES     
   14831 H6        -206.0071   -51.0392   137.9768 H6            1 RES     
   14832 H6        -205.1311   -49.6026   138.6388 H6            1 RES     
   14833 H6        -206.4224   -49.3828   137.3986 H6            1 RES     
   14834 H6        -197.3440   -54.3228   136.5308 H6            1 RES     
   14835 H6        -197.2577   -53.0453   135.2893 H6            1 RES     
   14836 H6        -197.8787   -52.5032   138.2662 H6            1 RES     
   14837 H6        -196.3132   -52.5811   137.4278 H6            1 RES     
   14838 H6        -197.0530   -50.7507   135.8168 H6            1 RES     
   14839 H6        -198.3818   -50.3765   136.9816 H6            1 RES     
   14840 H6        -196.5035   -50.0823   138.7862 H6            1 RES     
   14841 H6        -195.3334   -50.4927   137.5014 H6            1 RES     
   14842 H6        -196.1985   -48.4999   136.1483 H6            1 RES     
   14843 H6        -197.0463   -47.9725   137.6435 H6            1 RES     
   14844 H6        -194.8524   -46.8379   137.2940 H6            1 RES     
   14845 H6        -194.0074   -48.4155   137.1484 H6            1 RES     
   14846 H6        -194.4519   -48.9118   139.5474 H6            1 RES     
   14847 H6        -195.3473   -47.3478   139.7177 H6            1 RES     
   14848 H6        -193.2624   -46.0911   139.1117 H6            1 RES     
   14849 H6        -192.3690   -47.6491   138.9170 H6            1 RES     
   14850 H6        -192.9887   -47.1597   140.5362 H6            1 RES     
   14851 H6        -199.5920   -55.9297   131.3494 H6            1 RES     
   14852 H6        -199.2244   -54.3322   131.9793 H6            1 RES     
   14853 H6        -197.3722   -55.1182   130.9445 H6            1 RES     
   14854 H6        -196.6180   -55.1887   133.9374 H6            1 RES     
   14855 H6        -196.9523   -53.7218   132.8762 H6            1 RES     
   14856 H6        -194.5578   -55.5507   132.7381 H6            1 RES     
   14857 H6        -195.0030   -54.1995   131.5729 H6            1 RES     
   14858 H6        -193.3304   -53.4889   133.0572 H6            1 RES     
   14859 H6        -194.8152   -52.6082   133.5558 H6            1 RES     
   14860 H6        -193.7709   -55.2265   134.8602 H6            1 RES     
   14861 H6        -195.0273   -54.1460   135.5495 H6            1 RES     
   14862 H6        -192.0201   -53.5211   135.0421 H6            1 RES     
   14863 H6        -192.7308   -53.9849   136.6261 H6            1 RES     
   14864 H6        -192.3300   -51.5535   136.4977 H6            1 RES     
   14865 H6        -194.0690   -51.9650   136.6840 H6            1 RES     
   14866 H6        -193.4337   -51.4077   135.0802 H6            1 RES     
   14867 H6        -196.6627   -57.6194   132.5999 H6            1 RES     
   14868 H6        -197.6168   -57.6424   131.0685 H6            1 RES     
   14869 H6        -196.0810   -56.5030   129.7657 H6            1 RES     
   14870 H6        -194.8199   -56.4222   130.9641 H6            1 RES     
   14871 H6        -194.4788   -57.8431   129.1628 H6            1 RES     
   14872 H6        -195.7008   -59.0310   129.6414 H6            1 RES     
   14873 H6        -194.2095   -59.7450   131.5351 H6            1 RES     
   14874 H6        -193.2554   -58.2175   131.4280 H6            1 RES     
   14875 H6        -192.4273   -58.6928   129.2110 H6            1 RES     
   14876 H6        -193.3131   -60.2607   129.1204 H6            1 RES     
   14877 H6        -191.8351   -61.2155   130.8550 H6            1 RES     
   14878 H6        -191.0353   -59.6135   131.1178 H6            1 RES     
   14879 H6        -190.2313   -59.5531   128.7733 H6            1 RES     
   14880 H6        -191.0441   -61.1207   128.4111 H6            1 RES     
   14881 H6        -189.5497   -62.2869   130.0212 H6            1 RES     
   14882 H6        -188.7402   -60.7135   130.4253 H6            1 RES     
   14883 H6        -188.6151   -61.3984   128.7641 H6            1 RES     
   14884 C0        -207.7614   -47.6446   128.4863 C0            1 RES     
   14885 C1        -208.8164   -48.4888   128.2787 C1            1 RES     
   14886 C1        -209.3461   -48.9751   129.4187 C1            1 RES     
   14887 C1        -208.6868   -48.5739   130.4602 C1            1 RES     
   14888 C1        -207.5558   -47.7217   130.0533 C1            1 RES     
   14889 C1        -206.4877   -48.6710   130.5753 C1            1 RES     
   14890 C1        -206.8850   -49.6257   131.4662 C1            1 RES     
   14891 S2        -208.6246   -49.4444   131.9871 S2            1 RES     
   14892 C1        -205.9890   -50.7658   131.9322 C1            1 RES     
   14893 C1        -204.5768   -50.7246   131.7380 C1            1 RES     
   14894 N3        -203.7691   -51.7523   132.1302 N3            1 RES     
   14895 C1        -204.2450   -52.8795   132.7050 C1            1 RES     
   14896 C1        -205.6140   -53.0023   132.9073 C1            1 RES     
   14897 C1        -206.4920   -51.9415   132.5286 C1            1 RES     
   14898 N3        -207.8117   -52.1854   132.7665 N3            1 RES     
   14899 S2        -207.7908   -53.6997   133.4380 S2            1 RES     
   14900 N3        -206.1889   -54.1017   133.4527 N3            1 RES     
   14901 S2        -210.5543   -50.1065   129.1708 S2            1 RES     
   14902 C1        -210.4266   -49.9780   127.4872 C1            1 RES     
   14903 C1        -209.4025   -49.0849   127.1494 C1            1 RES     
   14904 C0        -208.1975   -46.2114   127.9117 C0            1 RES     
   14905 C0        -209.4518   -45.3707   127.3507 C0            1 RES     
   14906 C0        -210.2833   -46.0444   126.2139 C0            1 RES     
   14907 C0        -211.7621   -46.1942   126.6185 C0            1 RES     
   14908 C0        -212.6069   -47.0168   125.6289 C0            1 RES     
   14909 C0        -214.0807   -47.0015   126.0776 C0            1 RES     
   14910 C0        -214.9641   -47.9578   125.2667 C0            1 RES     
   14911 C0        -216.4191   -47.8716   125.7334 C0            1 RES     
   14912 C0        -208.8198   -44.0030   126.8324 C0            1 RES     
   14913 C0        -209.5741   -42.8070   126.1711 C0            1 RES     
   14914 C0        -209.8696   -42.8966   124.6424 C0            1 RES     
   14915 C0        -209.9213   -41.4829   123.9857 C0            1 RES     
   14916 C0        -210.1066   -41.5173   122.4544 C0            1 RES     
   14917 C0        -209.6642   -40.2180   121.7322 C0            1 RES     
   14918 C0        -210.3804   -38.9343   122.1761 C0            1 RES     
   14919 C0        -209.8887   -37.7308   121.3603 C0            1 RES     
   14920 C0        -206.4847   -47.9863   127.5773 C0            1 RES     
   14921 C0        -205.1329   -47.0810   127.3779 C0            1 RES     
   14922 C0        -205.4250   -45.6544   126.7612 C0            1 RES     
   14923 C0        -204.2653   -44.8251   126.2191 C0            1 RES     
   14924 C0        -204.6621   -43.5277   125.4919 C0            1 RES     
   14925 C0        -205.1618   -42.4256   126.4489 C0            1 RES     
   14926 C0        -205.0568   -41.0220   125.8252 C0            1 RES     
   14927 C0        -205.9875   -40.8024   124.6452 C0            1 RES     
   14928 C0        -204.0133   -47.0574   128.5157 C0            1 RES     
   14929 C0        -202.5660   -46.9286   127.9052 C0            1 RES     
   14930 C0        -201.2578   -47.0438   128.7353 C0            1 RES     
   14931 C0        -200.6741   -45.7633   129.4176 C0            1 RES     
   14932 C0        -199.1169   -45.8652   129.4125 C0            1 RES     
   14933 C0        -198.3238   -44.6872   130.0188 C0            1 RES     
   14934 C0        -196.8209   -44.8600   129.6835 C0            1 RES     
   14935 C0        -195.9300   -43.7759   130.2881 C0            1 RES     
   14936 H4        -205.5007   -48.6499   130.1938 H4            1 RES     
   14937 H5        -204.1034   -49.8647   131.2930 H5            1 RES     
   14938 H4        -209.1013   -48.9171   126.1276 H4            1 RES     
   14939 H6        -207.7510   -45.5196   128.6576 H6            1 RES     
   14940 H6        -207.7296   -46.1776   126.9486 H6            1 RES     
   14941 H6        -210.1264   -45.1294   128.2015 H6            1 RES     
   14942 H6        -210.2350   -45.4728   125.2698 H6            1 RES     
   14943 H6        -209.8461   -46.9943   125.9294 H6            1 RES     
   14944 H6        -211.8178   -46.7076   127.6037 H6            1 RES     
   14945 H6        -212.1921   -45.1733   126.7204 H6            1 RES     
   14946 H6        -212.5348   -46.6025   124.5991 H6            1 RES     
   14947 H6        -212.2220   -48.0606   125.6216 H6            1 RES     
   14948 H6        -214.4688   -45.9627   125.9808 H6            1 RES     
   14949 H6        -214.1442   -47.3058   127.1452 H6            1 RES     
   14950 H6        -214.9175   -47.7101   124.1846 H6            1 RES     
   14951 H6        -214.6034   -48.9997   125.4125 H6            1 RES     
   14952 H6        -216.4964   -48.1066   126.8172 H6            1 RES     
   14953 H6        -216.8197   -46.8500   125.5578 H6            1 RES     
   14954 H6        -217.0429   -48.5976   125.1708 H6            1 RES     
   14955 H6        -208.3455   -43.5634   127.7372 H6            1 RES     
   14956 H6        -207.9954   -44.2278   126.1196 H6            1 RES     
   14957 H6        -210.4539   -42.4689   126.7547 H6            1 RES     
   14958 H6        -208.8173   -41.9943   126.2485 H6            1 RES     
   14959 H6        -209.0217   -43.4231   124.1487 H6            1 RES     
   14960 H6        -210.8023   -43.4647   124.4496 H6            1 RES     
   14961 H6        -210.7044   -40.8453   124.4474 H6            1 RES     
   14962 H6        -208.9479   -41.0033   124.1682 H6            1 RES     
   14963 H6        -209.4578   -42.3148   122.0304 H6            1 RES     
   14964 H6        -211.1612   -41.7696   122.2139 H6            1 RES     
   14965 H6        -209.8323   -40.3608   120.6417 H6            1 RES     
   14966 H6        -208.5708   -40.0784   121.8879 H6            1 RES     
   14967 H6        -210.1689   -38.7393   123.2487 H6            1 RES     
   14968 H6        -211.4757   -39.0406   122.0329 H6            1 RES     
   14969 H6        -210.1108   -37.8744   120.2807 H6            1 RES     
   14970 H6        -208.7926   -37.5911   121.4831 H6            1 RES     
   14971 H6        -210.3987   -36.8049   121.7016 H6            1 RES     
   14972 H6        -206.1479   -49.0074   127.8613 H6            1 RES     
   14973 H6        -206.8662   -48.1047   126.5373 H6            1 RES     
   14974 H6        -204.6477   -47.6606   126.5629 H6            1 RES     
   14975 H6        -205.9293   -45.0172   127.5122 H6            1 RES     
   14976 H6        -206.0533   -45.8200   125.8599 H6            1 RES     
   14977 H6        -203.6211   -44.4934   127.0523 H6            1 RES     
   14978 H6        -203.7162   -45.4614   125.4917 H6            1 RES     
   14979 H6        -203.7192   -43.1599   125.0345 H6            1 RES     
   14980 H6        -205.3871   -43.7202   124.6699 H6            1 RES     
   14981 H6        -204.4915   -42.3980   127.3340 H6            1 RES     
   14982 H6        -206.1904   -42.6397   126.8081 H6            1 RES     
   14983 H6        -204.0084   -40.8454   125.5003 H6            1 RES     
   14984 H6        -205.3050   -40.2664   126.6017 H6            1 RES     
   14985 H6        -205.8428   -39.7763   124.2438 H6            1 RES     
   14986 H6        -207.0204   -40.8964   125.0097 H6            1 RES     
   14987 H6        -205.7989   -41.5298   123.8293 H6            1 RES     
   14988 H6        -204.2444   -46.3052   129.3014 H6            1 RES     
   14989 H6        -203.9639   -48.0576   128.9757 H6            1 RES     
   14990 H6        -202.5123   -47.7817   127.1950 H6            1 RES     
   14991 H6        -202.3955   -46.0470   127.2965 H6            1 RES     
   14992 H6        -200.5290   -47.2722   127.9253 H6            1 RES     
   14993 H6        -201.2383   -47.9244   129.4102 H6            1 RES     
   14994 H6        -201.0936   -45.6351   130.4390 H6            1 RES     
   14995 H6        -200.9245   -44.8609   128.8182 H6            1 RES     
   14996 H6        -198.8117   -45.9272   128.3433 H6            1 RES     
   14997 H6        -198.7969   -46.8001   129.9209 H6            1 RES     
   14998 H6        -198.4753   -44.6635   131.1195 H6            1 RES     
   14999 H6        -198.6683   -43.7232   129.5854 H6            1 RES     
   15000 H6        -196.6916   -44.8297   128.5779 H6            1 RES     
   15001 H6        -196.4595   -45.8455   130.0487 H6            1 RES     
   15002 H6        -195.9721   -43.8128   131.3964 H6            1 RES     
   15003 H6        -196.2344   -42.7686   129.9352 H6            1 RES     
   15004 H6        -194.8762   -43.9510   129.9741 H6            1 RES     
   15005 C0        -213.1566   -55.6513   120.7680 C0            1 RES     
   15006 C1        -213.4552   -56.6337   121.6704 C1            1 RES     
   15007 C1        -214.3449   -56.2488   122.6069 C1            1 RES     
   15008 C1        -214.6705   -55.0013   122.4714 C1            1 RES     
   15009 C1        -213.9450   -54.4031   121.3372 C1            1 RES     
   15010 C1        -213.1686   -53.4125   122.1918 C1            1 RES     
   15011 C1        -213.6403   -53.1721   123.4499 C1            1 RES     
   15012 S2        -215.2420   -53.9802   123.7844 S2            1 RES     
   15013 C1        -212.8794   -52.3642   124.4930 C1            1 RES     
   15014 C1        -211.7887   -51.5218   124.1263 C1            1 RES     
   15015 N3        -211.0858   -50.8134   125.0570 N3            1 RES     
   15016 C1        -211.3550   -50.8741   126.3803 C1            1 RES     
   15017 C1        -212.3903   -51.6911   126.8170 C1            1 RES     
   15018 C1        -213.1629   -52.4344   125.8735 C1            1 RES     
   15019 N3        -214.1410   -53.2071   126.4247 N3            1 RES     
   15020 S2        -213.9796   -52.9043   128.0454 S2            1 RES     
   15021 N3        -212.7210   -51.8376   128.1231 N3            1 RES     
   15022 S2        -214.6200   -57.4017   123.7886 S2            1 RES     
   15023 C1        -213.5462   -58.4963   123.0703 C1            1 RES     
   15024 C1        -212.9528   -57.9174   121.9418 C1            1 RES     
   15025 C0        -213.6377   -56.1822   119.3322 C0            1 RES     
   15026 C0        -214.4802   -57.3427   118.5989 C0            1 RES     
   15027 C0        -214.1161   -58.8111   118.9847 C0            1 RES     
   15028 C0        -215.3422   -59.5633   119.5360 C0            1 RES     
   15029 C0        -215.0226   -60.9546   120.1118 C0            1 RES     
   15030 C0        -216.3331   -61.6513   120.5251 C0            1 RES     
   15031 C0        -216.1007   -62.9589   121.2924 C0            1 RES     
   15032 C0        -217.4353   -63.6208   121.6431 C0            1 RES     
   15033 C0        -214.2252   -57.1038   117.0444 C0            1 RES     
   15034 C0        -214.7880   -57.9459   115.8566 C0            1 RES     
   15035 C0        -214.0244   -59.2499   115.4708 C0            1 RES     
   15036 C0        -214.1792   -59.5761   113.9534 C0            1 RES     
   15037 C0        -213.3574   -60.7989   113.4954 C0            1 RES     
   15038 C0        -213.0847   -60.8447   111.9693 C0            1 RES     
   15039 C0        -214.3307   -60.8625   111.0719 C0            1 RES     
   15040 C0        -213.9308   -60.9530   109.5929 C0            1 RES     
   15041 C0        -211.5813   -55.4595   120.5343 C0            1 RES     
   15042 C0        -210.8483   -54.5543   119.3812 C0            1 RES     
   15043 C0        -211.2005   -55.0164   117.9104 C0            1 RES     
   15044 C0        -210.3635   -54.4974   116.7456 C0            1 RES     
   15045 C0        -210.6734   -55.1268   115.3754 C0            1 RES     
   15046 C0        -212.0156   -54.6524   114.7807 C0            1 RES     
   15047 C0        -212.0775   -54.8481   113.2550 C0            1 RES     
   15048 C0        -212.0856   -56.3038   112.8216 C0            1 RES     
   15049 C0        -210.7720   -52.9677   119.5409 C0            1 RES     
   15050 C0        -209.4340   -52.3864   118.9444 C0            1 RES     
   15051 C0        -208.9862   -50.9061   119.0917 C0            1 RES     
   15052 C0        -209.4686   -49.8565   118.0374 C0            1 RES     
   15053 C0        -208.3399   -48.7972   117.8402 C0            1 RES     
   15054 C0        -208.5916   -47.6700   116.8154 C0            1 RES     
   15055 C0        -207.2722   -46.8923   116.5806 C0            1 RES     
   15056 C0        -207.4200   -45.7104   115.6235 C0            1 RES     
   15057 H4        -212.2528   -52.9997   121.8584 H4            1 RES     
   15058 H5        -211.5022   -51.4040   123.0939 H5            1 RES     
   15059 H4        -212.1779   -58.4160   121.3815 H4            1 RES     
   15060 H6        -214.0379   -55.2558   118.8674 H6            1 RES     
   15061 H6        -212.7327   -56.5405   118.8845 H6            1 RES     
   15062 H6        -215.5621   -57.1726   118.7932 H6            1 RES     
   15063 H6        -213.7143   -59.3784   118.1261 H6            1 RES     
   15064 H6        -213.2858   -58.8307   119.6811 H6            1 RES     
   15065 H6        -215.7956   -58.9645   120.3564 H6            1 RES     
   15066 H6        -216.0816   -59.6598   118.7104 H6            1 RES     
   15067 H6        -214.4937   -61.5862   119.3644 H6            1 RES     
   15068 H6        -214.3643   -60.8248   120.9992 H6            1 RES     
   15069 H6        -216.9280   -61.8582   119.6073 H6            1 RES     
   15070 H6        -216.9196   -60.9730   121.1826 H6            1 RES     
   15071 H6        -215.4962   -63.6662   120.6852 H6            1 RES     
   15072 H6        -215.5539   -62.7364   122.2350 H6            1 RES     
   15073 H6        -218.0670   -62.9319   122.2448 H6            1 RES     
   15074 H6        -217.9844   -63.8945   120.7164 H6            1 RES     
   15075 H6        -217.2587   -64.5433   122.2350 H6            1 RES     
   15076 H6        -214.6106   -56.0768   116.8611 H6            1 RES     
   15077 H6        -213.1293   -57.0701   116.8543 H6            1 RES     
   15078 H6        -215.8852   -58.0958   115.9084 H6            1 RES     
   15079 H6        -214.6063   -57.2662   114.9940 H6            1 RES     
   15080 H6        -212.9351   -59.0818   115.6292 H6            1 RES     
   15081 H6        -214.3484   -60.1027   116.1012 H6            1 RES     
   15082 H6        -215.2446   -59.7084   113.6697 H6            1 RES     
   15083 H6        -213.7878   -58.7136   113.3934 H6            1 RES     
   15084 H6        -212.3501   -60.7526   113.9643 H6            1 RES     
   15085 H6        -213.8539   -61.7303   113.8414 H6            1 RES     
   15086 H6        -212.4810   -61.7553   111.7588 H6            1 RES     
   15087 H6        -212.4676   -59.9611   111.6910 H6            1 RES     
   15088 H6        -214.9122   -59.9281   111.2202 H6            1 RES     
   15089 H6        -214.9690   -61.7344   111.3243 H6            1 RES     
   15090 H6        -213.3712   -61.8932   109.3968 H6            1 RES     
   15091 H6        -213.2916   -60.0909   109.3027 H6            1 RES     
   15092 H6        -214.8377   -60.9462   108.9516 H6            1 RES     
   15093 H6        -211.1435   -55.1526   121.5095 H6            1 RES     
   15094 H6        -211.1667   -56.4785   120.3583 H6            1 RES     
   15095 H6        -209.7959   -54.8721   119.5459 H6            1 RES     
   15096 H6        -212.2481   -54.7501   117.6742 H6            1 RES     
   15097 H6        -211.0260   -56.1130   117.8711 H6            1 RES     
   15098 H6        -210.5464   -53.4174   116.6056 H6            1 RES     
   15099 H6        -209.2993   -54.7158   116.9807 H6            1 RES     
   15100 H6        -209.8698   -54.7550   114.7049 H6            1 RES     
   15101 H6        -210.6053   -56.2371   115.4060 H6            1 RES     
   15102 H6        -212.1000   -53.5556   114.9338 H6            1 RES     
   15103 H6        -212.8756   -55.1339   115.2920 H6            1 RES     
   15104 H6        -211.2108   -54.3331   112.7863 H6            1 RES     
   15105 H6        -213.0055   -54.3719   112.8709 H6            1 RES     
   15106 H6        -212.1168   -56.3610   111.7123 H6            1 RES     
   15107 H6        -212.9961   -56.7695   113.2249 H6            1 RES     
   15108 H6        -211.1854   -56.8456   113.1774 H6            1 RES     
   15109 H6        -211.6925   -52.4735   119.1600 H6            1 RES     
   15110 H6        -210.6507   -52.7312   120.6104 H6            1 RES     
   15111 H6        -208.6465   -52.9620   119.4771 H6            1 RES     
   15112 H6        -209.2668   -52.5916   117.8924 H6            1 RES     
   15113 H6        -207.8961   -51.0081   118.8894 H6            1 RES     
   15114 H6        -209.0615   -50.5223   120.1301 H6            1 RES     
   15115 H6        -210.4352   -49.4029   118.3468 H6            1 RES     
   15116 H6        -209.6090   -50.3433   117.0476 H6            1 RES     
   15117 H6        -207.4483   -49.3556   117.4746 H6            1 RES     
   15118 H6        -208.0832   -48.3313   118.8159 H6            1 RES     
   15119 H6        -209.3810   -46.9878   117.1985 H6            1 RES     
   15120 H6        -208.9222   -48.0958   115.8431 H6            1 RES     
   15121 H6        -206.5153   -47.5864   116.1502 H6            1 RES     
   15122 H6        -206.8801   -46.5060   117.5462 H6            1 RES     
   15123 H6        -208.1152   -44.9549   116.0447 H6            1 RES     
   15124 H6        -207.7878   -46.0458   114.6315 H6            1 RES     
   15125 H6        -206.4266   -45.2280   115.4816 H6            1 RES     
   15126 C0        -209.2432   -65.8780   126.5028 C0            1 RES     
   15127 C1        -209.6428   -65.5647   127.7721 C1            1 RES     
   15128 C1        -210.9805   -65.4642   127.9033 C1            1 RES     
   15129 C1        -211.5850   -65.6293   126.7685 C1            1 RES     
   15130 C1        -210.6033   -65.8608   125.6944 C1            1 RES     
   15131 C1        -210.9499   -64.5918   124.9304 C1            1 RES     
   15132 C1        -212.1393   -63.9916   125.2272 C1            1 RES     
   15133 S2        -213.1656   -64.9611   126.3836 S2            1 RES     
   15134 C1        -212.5449   -62.6219   124.6988 C1            1 RES     
   15135 C1        -211.8686   -62.0241   123.5948 C1            1 RES     
   15136 N3        -212.2091   -60.7870   123.1303 N3            1 RES     
   15137 C1        -213.1860   -60.0381   123.6892 C1            1 RES     
   15138 C1        -213.8759   -60.5448   124.7835 C1            1 RES     
   15139 C1        -213.5633   -61.8435   125.2887 C1            1 RES     
   15140 N3        -214.2997   -62.2234   126.3708 N3            1 RES     
   15141 S2        -215.2921   -60.9199   126.6166 S2            1 RES     
   15142 N3        -214.8536   -59.8615   125.4270 N3            1 RES     
   15143 S2        -211.4719   -64.9572   129.4208 S2            1 RES     
   15144 C1        -209.8776   -64.8641   129.9836 C1            1 RES     
   15145 C1        -208.9847   -65.1853   128.9540 C1            1 RES     
   15146 C0        -208.5035   -67.2992   126.5897 C0            1 RES     
   15147 C0        -208.2149   -68.5489   127.5641 C0            1 RES     
   15148 C0        -207.6555   -68.2066   128.9810 C0            1 RES     
   15149 C0        -208.5727   -68.7553   130.0902 C0            1 RES     
   15150 C0        -208.1894   -68.2988   131.5095 C0            1 RES     
   15151 C0        -209.1016   -68.9971   132.5360 C0            1 RES     
   15152 C0        -208.9274   -68.4541   133.9599 C0            1 RES     
   15153 C0        -209.8309   -69.2092   134.9375 C0            1 RES     
   15154 C0        -207.1719   -69.4498   126.7646 C0            1 RES     
   15155 C0        -206.5265   -70.7900   127.2382 C0            1 RES     
   15156 C0        -205.2756   -70.7006   128.1653 C0            1 RES     
   15157 C0        -204.3335   -71.9290   127.9752 C0            1 RES     
   15158 C0        -203.0275   -71.8407   128.7920 C0            1 RES     
   15159 C0        -201.8846   -72.7447   128.2611 C0            1 RES     
   15160 C0        -202.1987   -74.2467   128.2018 C0            1 RES     
   15161 C0        -200.9793   -75.0351   127.7046 C0            1 RES     
   15162 C0        -208.0699   -64.9321   125.9536 C0            1 RES     
   15163 C0        -207.1847   -65.1335   124.5889 C0            1 RES     
   15164 C0        -206.3588   -66.4821   124.5765 C0            1 RES     
   15165 C0        -205.2513   -66.6683   123.5443 C0            1 RES     
   15166 C0        -204.3959   -67.9370   123.7126 C0            1 RES     
   15167 C0        -205.1442   -69.2283   123.3214 C0            1 RES     
   15168 C0        -204.1801   -70.3820   122.9909 C0            1 RES     
   15169 C0        -203.3833   -70.8786   124.1849 C0            1 RES     
   15170 C0        -207.8143   -64.7682   123.1681 C0            1 RES     
   15171 C0        -206.7280   -64.1959   122.1800 C0            1 RES     
   15172 C0        -207.0512   -63.5961   120.7837 C0            1 RES     
   15173 C0        -207.1291   -64.5487   119.5458 C0            1 RES     
   15174 C0        -206.6101   -63.7766   118.2930 C0            1 RES     
   15175 C0        -206.5735   -64.5390   116.9507 C0            1 RES     
   15176 C0        -205.7944   -63.6973   115.9089 C0            1 RES     
   15177 C0        -205.7468   -64.3328   114.5202 C0            1 RES     
   15178 H4        -210.2578   -64.1448   124.2659 H4            1 RES     
   15179 H5        -211.0790   -62.5466   123.0797 H5            1 RES     
   15180 H4        -207.9159   -65.1115   129.0775 H4            1 RES     
   15181 H6        -208.8399   -67.7907   125.6518 H6            1 RES     
   15182 H6        -207.4646   -67.0379   126.5984 H6            1 RES     
   15183 H6        -209.1527   -69.1365   127.6750 H6            1 RES     
   15184 H6        -206.6392   -68.6116   129.1349 H6            1 RES     
   15185 H6        -207.4949   -67.1397   129.0832 H6            1 RES     
   15186 H6        -209.6133   -68.4093   129.9038 H6            1 RES     
   15187 H6        -208.5478   -69.8661   130.0340 H6            1 RES     
   15188 H6        -207.1287   -68.5449   131.7371 H6            1 RES     
   15189 H6        -208.3212   -67.1959   131.5713 H6            1 RES     
   15190 H6        -208.8784   -70.0876   132.5230 H6            1 RES     
   15191 H6        -210.1645   -68.8491   132.2454 H6            1 RES     
   15192 H6        -207.8719   -68.5575   134.2912 H6            1 RES     
   15193 H6        -209.2051   -67.3772   133.9760 H6            1 RES     
   15194 H6        -210.8951   -69.1307   134.6263 H6            1 RES     
   15195 H6        -209.5456   -70.2827   134.9744 H6            1 RES     
   15196 H6        -209.7301   -68.7813   135.9570 H6            1 RES     
   15197 H6        -207.7075   -69.7178   125.8275 H6            1 RES     
   15198 H6        -206.3020   -68.8239   126.4649 H6            1 RES     
   15199 H6        -207.2697   -71.5298   127.5978 H6            1 RES     
   15200 H6        -206.1215   -71.1935   126.2831 H6            1 RES     
   15201 H6        -204.6736   -69.8143   127.8624 H6            1 RES     
   15202 H6        -205.5741   -70.5824   129.2268 H6            1 RES     
   15203 H6        -204.8552   -72.8836   128.1978 H6            1 RES     
   15204 H6        -204.0347   -71.9493   126.9163 H6            1 RES     
   15205 H6        -202.6281   -70.8051   128.7227 H6            1 RES     
   15206 H6        -203.2431   -72.0540   129.8605 H6            1 RES     
   15207 H6        -200.9980   -72.5918   128.9156 H6            1 RES     
   15208 H6        -201.6086   -72.4060   127.2373 H6            1 RES     
   15209 H6        -203.0405   -74.4258   127.5000 H6            1 RES     
   15210 H6        -202.4779   -74.6173   129.2099 H6            1 RES     
   15211 H6        -200.1214   -74.9060   128.3995 H6            1 RES     
   15212 H6        -200.6726   -74.6922   126.6925 H6            1 RES     
   15213 H6        -201.2225   -76.1174   127.6473 H6            1 RES     
   15214 H6        -208.4749   -63.8968   125.9234 H6            1 RES     
   15215 H6        -207.2966   -64.8988   126.7548 H6            1 RES     
   15216 H6        -206.4331   -64.3291   124.7425 H6            1 RES     
   15217 H6        -207.0442   -67.3406   124.4450 H6            1 RES     
   15218 H6        -205.8084   -66.5269   125.5407 H6            1 RES     
   15219 H6        -205.6915   -66.7590   122.5357 H6            1 RES     
   15220 H6        -204.5712   -65.7931   123.6282 H6            1 RES     
   15221 H6        -203.5605   -67.8128   122.9914 H6            1 RES     
   15222 H6        -203.9576   -68.0073   124.7330 H6            1 RES     
   15223 H6        -205.7014   -69.0401   122.3793 H6            1 RES     
   15224 H6        -205.8810   -69.5186   124.0997 H6            1 RES     
   15225 H6        -203.4771   -70.0525   122.1951 H6            1 RES     
   15226 H6        -204.7687   -71.2369   122.5932 H6            1 RES     
   15227 H6        -202.7040   -71.6973   123.8637 H6            1 RES     
   15228 H6        -204.0950   -71.2787   124.9210 H6            1 RES     
   15229 H6        -202.7726   -70.0713   124.6384 H6            1 RES     
   15230 H6        -208.4063   -65.6135   122.7535 H6            1 RES     
   15231 H6        -208.4723   -63.8931   123.2939 H6            1 RES     
   15232 H6        -206.2920   -63.3447   122.7462 H6            1 RES     
   15233 H6        -205.8907   -64.8552   121.9778 H6            1 RES     
   15234 H6        -206.1279   -63.0000   120.6060 H6            1 RES     
   15235 H6        -207.8819   -62.8606   120.7997 H6            1 RES     
   15236 H6        -208.1615   -64.9391   119.4135 H6            1 RES     
   15237 H6        -206.4410   -65.4115   119.6814 H6            1 RES     
   15238 H6        -205.5571   -63.4911   118.5165 H6            1 RES     
   15239 H6        -207.2005   -62.8461   118.1501 H6            1 RES     
   15240 H6        -207.6114   -64.7260   116.6002 H6            1 RES     
   15241 H6        -206.0515   -65.5131   117.0715 H6            1 RES     
   15242 H6        -204.7457   -63.5679   116.2603 H6            1 RES     
   15243 H6        -206.2547   -62.6904   115.8108 H6            1 RES     
   15244 H6        -206.7693   -64.4185   114.0977 H6            1 RES     
   15245 H6        -205.2721   -65.3353   114.5579 H6            1 RES     
   15246 H6        -205.1435   -63.6872   113.8428 H6            1 RES     
   15247 C0        -206.2529   -60.3724   137.1581 C0            1 RES     
   15248 C1        -207.4256   -59.7053   137.3783 C1            1 RES     
   15249 C1        -208.4779   -60.5233   137.5791 C1            1 RES     
   15250 C1        -208.1438   -61.7697   137.4550 C1            1 RES     
   15251 C1        -206.7141   -61.8854   137.1182 C1            1 RES     
   15252 C1        -206.9559   -62.5099   135.7523 C1            1 RES     
   15253 C1        -208.1903   -63.0449   135.5220 C1            1 RES     
   15254 S2        -209.2588   -63.0520   137.0014 S2            1 RES     
   15255 C1        -208.6549   -63.5298   134.1549 C1            1 RES     
   15256 C1        -207.7260   -63.7738   133.1008 C1            1 RES     
   15257 N3        -208.1354   -64.1848   131.8656 N3            1 RES     
   15258 C1        -209.4368   -64.3678   131.5487 C1            1 RES     
   15259 C1        -210.4028   -64.1286   132.5180 C1            1 RES     
   15260 C1        -210.0151   -63.7157   133.8291 C1            1 RES     
   15261 N3        -211.0529   -63.5014   134.6862 N3            1 RES     
   15262 S2        -212.3777   -63.8485   133.7541 S2            1 RES     
   15263 N3        -211.7324   -64.2601   132.2906 N3            1 RES     
   15264 S2        -209.9384   -59.7186   137.7228 S2            1 RES     
   15265 C1        -209.2036   -58.2048   137.5336 C1            1 RES     
   15266 C1        -207.8301   -58.3615   137.3111 C1            1 RES     
   15267 C0        -205.2652   -59.9777   138.3594 C0            1 RES     
   15268 C0        -205.2000   -59.2410   139.7904 C0            1 RES     
   15269 C0        -205.8037   -57.8027   139.8562 C0            1 RES     
   15270 C0        -206.9223   -57.7152   140.9116 C0            1 RES     
   15271 C0        -207.6927   -56.3825   140.9058 C0            1 RES     
   15272 C0        -208.7019   -56.3691   142.0698 C0            1 RES     
   15273 C0        -209.6532   -55.1668   142.0246 C0            1 RES     
   15274 C0        -210.6053   -55.1894   143.2226 C0            1 RES     
   15275 C0        -203.6489   -59.2027   140.1527 C0            1 RES     
   15276 C0        -202.9940   -58.5876   141.4293 C0            1 RES     
   15277 C0        -202.7211   -57.0521   141.4320 C0            1 RES     
   15278 C0        -201.4932   -56.6906   142.3232 C0            1 RES     
   15279 C0        -201.1139   -55.1958   142.2789 C0            1 RES     
   15280 C0        -199.6565   -54.8975   142.7175 C0            1 RES     
   15281 C0        -199.2858   -55.3450   144.1390 C0            1 RES     
   15282 C0        -197.8382   -54.9555   144.4684 C0            1 RES     
   15283 C0        -205.4451   -59.8345   135.8809 C0            1 RES     
   15284 C0        -203.9157   -60.2200   135.4348 C0            1 RES     
   15285 C0        -202.8337   -59.8273   136.5193 C0            1 RES     
   15286 C0        -201.3585   -59.8206   136.1318 C0            1 RES     
   15287 C0        -200.3961   -59.2690   137.1990 C0            1 RES     
   15288 C0        -200.2030   -60.2262   138.3934 C0            1 RES     
   15289 C0        -198.9013   -59.9402   139.1638 C0            1 RES     
   15290 C0        -198.8933   -58.6017   139.8819 C0            1 RES     
   15291 C0        -203.6195   -61.6209   134.7291 C0            1 RES     
   15292 C0        -202.4658   -61.5024   133.6619 C0            1 RES     
   15293 C0        -202.0569   -62.6448   132.6916 C0            1 RES     
   15294 C0        -201.0013   -63.6996   133.1597 C0            1 RES     
   15295 C0        -200.1554   -64.1365   131.9233 C0            1 RES     
   15296 C0        -199.0259   -65.1625   132.1592 C0            1 RES     
   15297 C0        -198.1532   -65.2607   130.8827 C0            1 RES     
   15298 C0        -197.0344   -66.2965   130.9838 C0            1 RES     
   15299 H4        -206.2297   -62.4490   134.9846 H4            1 RES     
   15300 H5        -206.6659   -63.6607   133.2590 H5            1 RES     
   15301 H4        -207.1862   -57.5260   137.0868 H4            1 RES     
   15302 H6        -204.7441   -60.9395   138.5535 H6            1 RES     
   15303 H6        -204.6409   -59.2210   137.9287 H6            1 RES     
   15304 H6        -205.7065   -59.8835   140.5438 H6            1 RES     
   15305 H6        -205.0387   -57.0418   140.0931 H6            1 RES     
   15306 H6        -206.1476   -57.4853   138.8786 H6            1 RES     
   15307 H6        -207.6627   -58.5234   140.7224 H6            1 RES     
   15308 H6        -206.4608   -57.8772   141.9108 H6            1 RES     
   15309 H6        -207.0003   -55.5185   141.0133 H6            1 RES     
   15310 H6        -208.2294   -56.2913   139.9356 H6            1 RES     
   15311 H6        -208.1358   -56.3609   143.0282 H6            1 RES     
   15312 H6        -209.3211   -57.2918   142.0314 H6            1 RES     
   15313 H6        -209.0806   -54.2147   142.0372 H6            1 RES     
   15314 H6        -210.2542   -55.2122   141.0899 H6            1 RES     
   15315 H6        -211.1872   -56.1363   143.2415 H6            1 RES     
   15316 H6        -210.0328   -55.1005   144.1709 H6            1 RES     
   15317 H6        -211.3176   -54.3401   143.1587 H6            1 RES     
   15318 H6        -203.3499   -60.2736   140.1783 H6            1 RES     
   15319 H6        -203.0881   -58.7368   139.3120 H6            1 RES     
   15320 H6        -203.4609   -58.9376   142.3718 H6            1 RES     
   15321 H6        -201.9767   -59.0385   141.3988 H6            1 RES     
   15322 H6        -202.4415   -56.7409   140.4000 H6            1 RES     
   15323 H6        -203.6239   -56.4876   141.7418 H6            1 RES     
   15324 H6        -201.6423   -57.0121   143.3756 H6            1 RES     
   15325 H6        -200.6279   -57.2408   141.9240 H6            1 RES     
   15326 H6        -201.1742   -54.8394   141.2272 H6            1 RES     
   15327 H6        -201.8409   -54.6105   142.8812 H6            1 RES     
   15328 H6        -199.4945   -53.7998   142.6360 H6            1 RES     
   15329 H6        -198.9610   -55.3935   142.0038 H6            1 RES     
   15330 H6        -199.3778   -56.4487   144.2201 H6            1 RES     
   15331 H6        -199.9622   -54.8665   144.8772 H6            1 RES     
   15332 H6        -197.7123   -53.8519   144.4280 H6            1 RES     
   15333 H6        -197.1299   -55.4214   143.7491 H6            1 RES     
   15334 H6        -197.5739   -55.2999   145.4908 H6            1 RES     
   15335 H6        -206.0913   -60.0060   134.9923 H6            1 RES     
   15336 H6        -205.4081   -58.7255   135.9808 H6            1 RES     
   15337 H6        -203.7813   -59.4906   134.6069 H6            1 RES     
   15338 H6        -202.9156   -60.5020   137.3923 H6            1 RES     
   15339 H6        -203.0236   -58.7661   136.7884 H6            1 RES     
   15340 H6        -201.0144   -60.8544   135.9518 H6            1 RES     
   15341 H6        -201.2574   -59.1814   135.2281 H6            1 RES     
   15342 H6        -199.4161   -59.1898   136.6825 H6            1 RES     
   15343 H6        -200.6894   -58.2483   137.5316 H6            1 RES     
   15344 H6        -200.0844   -61.2584   138.0011 H6            1 RES     
   15345 H6        -201.0879   -60.2174   139.0641 H6            1 RES     
   15346 H6        -198.0438   -59.9799   138.4574 H6            1 RES     
   15347 H6        -198.7537   -60.7371   139.9244 H6            1 RES     
   15348 H6        -197.9198   -58.4638   140.3998 H6            1 RES     
   15349 H6        -199.6943   -58.6194   140.6346 H6            1 RES     
   15350 H6        -199.0422   -57.7557   139.1801 H6            1 RES     
   15351 H6        -203.4674   -62.4310   135.4756 H6            1 RES     
   15352 H6        -204.4790   -61.8762   134.0883 H6            1 RES     
   15353 H6        -202.8220   -60.6914   132.9907 H6            1 RES     
   15354 H6        -201.5136   -61.1506   134.0444 H6            1 RES     
   15355 H6        -201.5226   -62.0589   131.9102 H6            1 RES     
   15356 H6        -202.9184   -63.1151   132.1739 H6            1 RES     
   15357 H6        -201.4976   -64.5559   133.6658 H6            1 RES     
   15358 H6        -200.2855   -63.2358   133.8729 H6            1 RES     
   15359 H6        -199.6618   -63.2141   131.5412 H6            1 RES     
   15360 H6        -200.8235   -64.5295   131.1270 H6            1 RES     
   15361 H6        -199.4674   -66.1526   132.4043 H6            1 RES     
   15362 H6        -198.3760   -64.8381   133.0008 H6            1 RES     
   15363 H6        -197.6836   -64.2699   130.6890 H6            1 RES     
   15364 H6        -198.7861   -65.5224   130.0072 H6            1 RES     
   15365 H6        -197.4584   -67.3144   131.1080 H6            1 RES     
   15366 H6        -196.3561   -66.0673   131.8319 H6            1 RES     
   15367 H6        -196.4357   -66.2812   130.0452 H6            1 RES     
   15368 C0        -212.7247   -50.0290   135.1789 C0            1 RES     
   15369 C1        -213.9252   -50.5987   134.8577 C1            1 RES     
   15370 C1        -214.4819   -51.2851   135.8753 C1            1 RES     
   15371 C1        -213.7128   -51.2989   136.9187 C1            1 RES     
   15372 C1        -212.4647   -50.5656   136.6445 C1            1 RES     
   15373 C1        -211.5660   -51.7836   136.7971 C1            1 RES     
   15374 C1        -212.0902   -52.8673   137.4403 C1            1 RES     
   15375 S2        -213.7411   -52.5528   138.1517 S2            1 RES     
   15376 C1        -211.3981   -54.2225   137.5052 C1            1 RES     
   15377 C1        -210.0129   -54.3621   137.1967 C1            1 RES     
   15378 N3        -209.3903   -55.5760   137.2285 N3            1 RES     
   15379 C1        -210.0379   -56.7236   137.5303 C1            1 RES     
   15380 C1        -211.3954   -56.6707   137.8212 C1            1 RES     
   15381 C1        -212.0804   -55.4175   137.8176 C1            1 RES     
   15382 N3        -213.4099   -55.4971   138.1065 N3            1 RES     
   15383 S2        -213.6364   -57.1196   138.3532 S2            1 RES     
   15384 N3        -212.1365   -57.7676   138.1115 N3            1 RES     
   15385 S2        -215.8874   -52.0908   135.4547 S2            1 RES     
   15386 C1        -215.8161   -51.5283   133.8592 C1            1 RES     
   15387 C1        -214.6622   -50.7576   133.6721 C1            1 RES     
   15388 C0        -212.9165   -48.4417   135.0431 C0            1 RES     
   15389 C0        -214.0197   -47.2854   134.8422 C0            1 RES     
   15390 C0        -215.0123   -47.4753   133.6522 C0            1 RES     
   15391 C0        -216.4732   -47.4855   134.1406 C0            1 RES     
   15392 C0        -217.4993   -47.8548   133.0543 C0            1 RES     
   15393 C0        -218.9230   -47.7213   133.6279 C0            1 RES     
   15394 C0        -220.0034   -48.2600   132.6817 C0            1 RES     
   15395 C0        -221.3947   -48.0674   133.2895 C0            1 RES     
   15396 C0        -213.1720   -45.9510   134.6429 C0            1 RES     
   15397 C0        -213.7237   -44.5125   134.3916 C0            1 RES     
   15398 C0        -214.1009   -44.1297   132.9276 C0            1 RES     
   15399 C0        -213.9224   -42.6015   132.6716 C0            1 RES     
   15400 C0        -214.1815   -42.1837   131.2091 C0            1 RES     
   15401 C0        -213.5419   -40.8272   130.8139 C0            1 RES     
   15402 C0        -213.9891   -39.6150   131.6437 C0            1 RES     
   15403 C0        -213.3231   -38.3316   131.1288 C0            1 RES     
   15404 C0        -211.5757   -50.3130   134.0962 C0            1 RES     
   15405 C0        -210.0915   -49.6226   134.0145 C0            1 RES     
   15406 C0        -210.1449   -48.0537   133.8230 C0            1 RES     
   15407 C0        -208.8790   -47.3097   133.4102 C0            1 RES     
   15408 C0        -209.0640   -45.8158   133.0886 C0            1 RES     
   15409 C0        -209.3083   -44.9518   134.3432 C0            1 RES     
   15410 C0        -208.9764   -43.4681   134.1016 C0            1 RES     
   15411 C0        -209.9045   -42.7835   133.1132 C0            1 RES     
   15412 C0        -208.9353   -50.0961   135.0082 C0            1 RES     
   15413 C0        -207.5186   -50.0442   134.3195 C0            1 RES     
   15414 C0        -206.2169   -50.5959   134.9636 C0            1 RES     
   15415 C0        -205.3772   -49.6655   135.8992 C0            1 RES     
   15416 C0        -203.8671   -50.0164   135.7212 C0            1 RES     
   15417 C0        -202.8442   -49.1967   136.5372 C0            1 RES     
   15418 C0        -201.4157   -49.5153   136.0286 C0            1 RES     
   15419 C0        -200.3140   -48.8001   136.8093 C0            1 RES     
   15420 H4        -210.6105   -51.8210   136.3433 H4            1 RES     
   15421 H5        -209.4108   -53.5029   136.9497 H5            1 RES     
   15422 H4        -214.3828   -50.3678   132.7062 H4            1 RES     
   15423 H6        -212.3166   -48.0641   135.8986 H6            1 RES     
   15424 H6        -212.4952   -48.2224   134.0827 H6            1 RES     
   15425 H6        -214.5985   -47.1793   135.7860 H6            1 RES     
   15426 H6        -214.9034   -46.6828   132.8903 H6            1 RES     
   15427 H6        -214.7704   -48.3693   133.0891 H6            1 RES     
   15428 H6        -216.5766   -48.2330   134.9578 H6            1 RES     
   15429 H6        -216.7034   -46.4755   134.5462 H6            1 RES     
   15430 H6        -217.4000   -47.1917   132.1667 H6            1 RES     
   15431 H6        -217.3133   -48.9050   132.7379 H6            1 RES     
   15432 H6        -219.1179   -46.6468   133.8433 H6            1 RES     
   15433 H6        -218.9919   -48.2921   134.5796 H6            1 RES     
   15434 H6        -219.9620   -47.7362   131.7028 H6            1 RES     
   15435 H6        -219.8337   -49.3465   132.5152 H6            1 RES     
   15436 H6        -221.4637   -48.5746   134.2762 H6            1 RES     
   15437 H6        -221.6087   -46.9855   133.4259 H6            1 RES     
   15438 H6        -222.1664   -48.4986   132.6177 H6            1 RES     
   15439 H6        -212.5839   -45.8605   135.5825 H6            1 RES     
   15440 H6        -212.4366   -46.1039   133.8218 H6            1 RES     
   15441 H6        -214.4987   -44.2078   135.1234 H6            1 RES     
   15442 H6        -212.8279   -43.8880   134.6075 H6            1 RES     
   15443 H6        -213.3877   -44.6324   132.2358 H6            1 RES     
   15444 H6        -215.1298   -44.4619   132.6814 H6            1 RES     
   15445 H6        -214.5531   -41.9954   133.3556 H6            1 RES     
   15446 H6        -212.8702   -42.3570   132.8810 H6            1 RES     
   15447 H6        -213.7103   -42.9296   130.5321 H6            1 RES     
   15448 H6        -215.2744   -42.1837   131.0113 H6            1 RES     
   15449 H6        -213.7835   -40.6358   129.7448 H6            1 RES     
   15450 H6        -212.4355   -40.9172   130.8972 H6            1 RES     
   15451 H6        -213.6961   -39.7591   132.7051 H6            1 RES     
   15452 H6        -215.0907   -39.4966   131.5813 H6            1 RES     
   15453 H6        -213.6173   -38.1351   130.0750 H6            1 RES     
   15454 H6        -212.2155   -38.4130   131.1801 H6            1 RES     
   15455 H6        -213.6381   -37.4641   131.7469 H6            1 RES     
   15456 H6        -211.4194   -51.4138   134.0701 H6            1 RES     
   15457 H6        -212.0201   -50.0774   133.1021 H6            1 RES     
   15458 H6        -209.7590   -50.0279   133.0343 H6            1 RES     
   15459 H6        -210.4885   -47.5730   134.7585 H6            1 RES     
   15460 H6        -210.8339   -47.8602   132.9730 H6            1 RES     
   15461 H6        -208.1471   -47.3297   134.2368 H6            1 RES     
   15462 H6        -208.4901   -47.8033   132.4933 H6            1 RES     
   15463 H6        -208.0918   -45.4967   132.6568 H6            1 RES     
   15464 H6        -209.8492   -45.6536   132.3168 H6            1 RES     
   15465 H6        -208.6043   -45.2786   135.1376 H6            1 RES     
   15466 H6        -210.3410   -45.0844   134.7290 H6            1 RES     
   15467 H6        -207.9295   -43.3838   133.7372 H6            1 RES     
   15468 H6        -209.0456   -42.9243   135.0686 H6            1 RES     
   15469 H6        -209.5925   -41.7250   132.9826 H6            1 RES     
   15470 H6        -210.9191   -42.8030   133.5359 H6            1 RES     
   15471 H6        -209.8904   -43.2801   132.1214 H6            1 RES     
   15472 H6        -208.9879   -49.5609   135.9816 H6            1 RES     
   15473 H6        -209.0490   -51.1781   135.1837 H6            1 RES     
   15474 H6        -207.6552   -50.6666   133.4089 H6            1 RES     
   15475 H6        -207.2174   -49.0699   133.9495 H6            1 RES     
   15476 H6        -205.5806   -50.7098   134.0572 H6            1 RES     
   15477 H6        -206.3282   -51.6186   135.3796 H6            1 RES     
   15478 H6        -205.7185   -49.7553   136.9533 H6            1 RES     
   15479 H6        -205.4852   -48.6050   135.5832 H6            1 RES     
   15480 H6        -203.6282   -49.8320   134.6492 H6            1 RES     
   15481 H6        -203.7011   -51.0942   135.9347 H6            1 RES     
   15482 H6        -202.9378   -49.4513   137.6150 H6            1 RES     
   15483 H6        -203.0255   -48.1078   136.4057 H6            1 RES     
   15484 H6        -201.3341   -49.2046   134.9624 H6            1 RES     
   15485 H6        -201.2248   -50.6086   136.0875 H6            1 RES     
   15486 H6        -200.3110   -49.1321   137.8682 H6            1 RES     
   15487 H6        -200.4443   -47.6990   136.7625 H6            1 RES     
   15488 H6        -199.3258   -49.0530   136.3627 H6            1 RES     
   15489 C0        -219.8480   -54.6129   126.1769 C0            1 RES     
   15490 C1        -220.2799   -55.7422   126.8147 C1            1 RES     
   15491 C1        -221.0396   -55.4882   127.8987 C1            1 RES     
   15492 C1        -221.1367   -54.2156   128.1257 C1            1 RES     
   15493 C1        -220.3668   -53.4568   127.1245 C1            1 RES     
   15494 C1        -219.3832   -52.8800   128.1317 C1            1 RES     
   15495 C1        -219.7442   -52.9198   129.4474 C1            1 RES     
   15496 S2        -221.4499   -53.5143   129.7078 S2            1 RES     
   15497 C1        -218.8007   -52.5654   130.5893 C1            1 RES     
   15498 C1        -217.5920   -51.8457   130.3549 C1            1 RES     
   15499 N3        -216.7289   -51.5451   131.3682 N3            1 RES     
   15500 C1        -216.9432   -51.9213   132.6487 C1            1 RES     
   15501 C1        -218.0897   -52.6452   132.9517 C1            1 RES     
   15502 C1        -219.0283   -52.9639   131.9235 C1            1 RES     
   15503 N3        -220.1050   -53.6867   132.3428 N3            1 RES     
   15504 S2        -219.8162   -53.8707   133.9636 S2            1 RES     
   15505 N3        -218.3810   -53.0880   134.1991 N3            1 RES     
   15506 S2        -221.4668   -56.8595   128.7579 S2            1 RES     
   15507 C1        -220.6464   -57.8760   127.6804 C1            1 RES     
   15508 C1        -220.0096   -57.1155   126.6922 C1            1 RES     
   15509 C0        -220.4840   -54.6431   124.7041 C0            1 RES     
   15510 C0        -221.5582   -55.4033   123.7753 C0            1 RES     
   15511 C0        -221.4523   -56.9603   123.7273 C0            1 RES     
   15512 C0        -222.7689   -57.6228   124.1752 C0            1 RES     
   15513 C0        -222.6838   -59.1516   124.3342 C0            1 RES     
   15514 C0        -224.0794   -59.7098   124.6720 C0            1 RES     
   15515 C0        -224.0558   -61.1974   125.0450 C0            1 RES     
   15516 C0        -225.4716   -61.7016   125.3341 C0            1 RES     
   15517 C0        -221.3357   -54.7925   122.3206 C0            1 RES     
   15518 C0        -222.0977   -55.1722   121.0122 C0            1 RES     
   15519 C0        -221.6050   -56.4274   120.2285 C0            1 RES     
   15520 C0        -221.8869   -56.2949   118.7002 C0            1 RES     
   15521 C0        -221.3255   -57.4629   117.8629 C0            1 RES     
   15522 C0        -221.1365   -57.1325   116.3594 C0            1 RES     
   15523 C0        -222.4046   -56.6986   115.6099 C0            1 RES     
   15524 C0        -222.0969   -56.4444   114.1280 C0            1 RES     
   15525 C0        -218.2767   -54.6257   125.8545 C0            1 RES     
   15526 C0        -217.4441   -53.5721   124.9149 C0            1 RES     
   15527 C0        -217.9426   -53.5488   123.4142 C0            1 RES     
   15528 C0        -217.0792   -52.8750   122.3525 C0            1 RES     
   15529 C0        -217.5623   -53.0446   120.9008 C0            1 RES     
   15530 C0        -218.8206   -52.2116   120.5800 C0            1 RES     
   15531 C0        -218.9877   -51.9685   119.0690 C0            1 RES     
   15532 C0        -219.2828   -53.2277   118.2726 C0            1 RES     
   15533 C0        -217.0706   -52.1251   125.4764 C0            1 RES     
   15534 C0        -215.6776   -51.6304   124.9297 C0            1 RES     
   15535 C0        -214.9594   -50.3417   125.4164 C0            1 RES     
   15536 C0        -215.2892   -48.9788   124.7238 C0            1 RES     
   15537 C0        -213.9955   -48.1064   124.7055 C0            1 RES     
   15538 C0        -214.0832   -46.7159   124.0398 C0            1 RES     
   15539 C0        -212.6557   -46.1312   123.8938 C0            1 RES     
   15540 C0        -212.6281   -44.7246   123.2977 C0            1 RES     
   15541 H4        -218.4236   -52.5478   127.8333 H4            1 RES     
   15542 H5        -217.3367   -51.4979   129.3671 H5            1 RES     
   15543 H4        -219.3661   -57.5615   125.9506 H4            1 RES     
   15544 H6        -220.7286   -53.5722   124.5377 H6            1 RES     
   15545 H6        -219.6819   -55.0085   124.0952 H6            1 RES     
   15546 H6        -222.5803   -55.1178   124.1082 H6            1 RES     
   15547 H6        -221.2016   -57.3283   122.7163 H6            1 RES     
   15548 H6        -220.6085   -57.3062   124.3130 H6            1 RES     
   15549 H6        -223.0664   -57.2060   125.1626 H6            1 RES     
   15550 H6        -223.5507   -57.3665   123.4265 H6            1 RES     
   15551 H6        -222.3149   -59.6319   123.4011 H6            1 RES     
   15552 H6        -221.9727   -59.3800   125.1586 H6            1 RES     
   15553 H6        -224.7439   -59.5565   123.7923 H6            1 RES     
   15554 H6        -224.5006   -59.1512   125.5363 H6            1 RES     
   15555 H6        -223.6200   -61.8004   124.2198 H6            1 RES     
   15556 H6        -223.4346   -61.3349   125.9572 H6            1 RES     
   15557 H6        -225.9377   -61.1102   126.1519 H6            1 RES     
   15558 H6        -226.1037   -61.6167   124.4241 H6            1 RES     
   15559 H6        -225.4402   -62.7671   125.6447 H6            1 RES     
   15560 H6        -221.5341   -53.7058   122.4496 H6            1 RES     
   15561 H6        -220.2622   -54.8884   122.0438 H6            1 RES     
   15562 H6        -223.2001   -55.1483   121.1259 H6            1 RES     
   15563 H6        -221.8343   -54.3214   120.3444 H6            1 RES     
   15564 H6        -220.4972   -56.4904   120.3222 H6            1 RES     
   15565 H6        -222.0506   -57.3551   120.6414 H6            1 RES     
   15566 H6        -222.9704   -56.1675   118.4932 H6            1 RES     
   15567 H6        -221.3701   -55.3883   118.3512 H6            1 RES     
   15568 H6        -220.3062   -57.7130   118.2307 H6            1 RES     
   15569 H6        -221.9680   -58.3587   117.9982 H6            1 RES     
   15570 H6        -220.7206   -58.0367   115.8621 H6            1 RES     
   15571 H6        -220.3813   -56.3202   116.2652 H6            1 RES     
   15572 H6        -222.7974   -55.7585   116.0516 H6            1 RES     
   15573 H6        -223.1798   -57.4892   115.6842 H6            1 RES     
   15574 H6        -221.7290   -57.3734   113.6409 H6            1 RES     
   15575 H6        -221.3244   -55.6529   114.0147 H6            1 RES     
   15576 H6        -223.0158   -56.1132   113.5991 H6            1 RES     
   15577 H6        -217.7456   -54.6743   126.8304 H6            1 RES     
   15578 H6        -218.0648   -55.6110   125.3798 H6            1 RES     
   15579 H6        -216.4615   -54.0912   124.8909 H6            1 RES     
   15580 H6        -218.9333   -53.0597   123.3556 H6            1 RES     
   15581 H6        -217.9743   -54.6057   123.0731 H6            1 RES     
   15582 H6        -217.0671   -51.7833   122.5179 H6            1 RES     
   15583 H6        -216.0635   -53.3211   122.4211 H6            1 RES     
   15584 H6        -216.7359   -52.6405   120.2785 H6            1 RES     
   15585 H6        -217.6977   -54.1163   120.6332 H6            1 RES     
   15586 H6        -218.6951   -51.2006   121.0220 H6            1 RES     
   15587 H6        -219.7299   -52.6669   121.0260 H6            1 RES     
   15588 H6        -218.0638   -51.4943   118.6721 H6            1 RES     
   15589 H6        -219.8293   -51.2595   118.9120 H6            1 RES     
   15590 H6        -219.3751   -52.9725   117.1950 H6            1 RES     
   15591 H6        -220.2436   -53.6300   118.6237 H6            1 RES     
   15592 H6        -218.4819   -53.9864   118.3878 H6            1 RES     
   15593 H6        -217.9014   -51.4012   125.3264 H6            1 RES     
   15594 H6        -216.8587   -52.2143   126.5542 H6            1 RES     
   15595 H6        -214.9855   -52.4512   125.2166 H6            1 RES     
   15596 H6        -215.5997   -51.5638   123.8497 H6            1 RES     
   15597 H6        -213.9172   -50.5619   125.0929 H6            1 RES     
   15598 H6        -214.9151   -50.2505   126.5214 H6            1 RES     
   15599 H6        -216.1408   -48.4751   125.2307 H6            1 RES     
   15600 H6        -215.5621   -49.1455   123.6589 H6            1 RES     
   15601 H6        -213.2394   -48.6815   124.1243 H6            1 RES     
   15602 H6        -213.6129   -47.9746   125.7405 H6            1 RES     
   15603 H6        -214.7154   -46.0449   124.6606 H6            1 RES     
   15604 H6        -214.5307   -46.7984   123.0256 H6            1 RES     
   15605 H6        -212.0597   -46.7952   123.2275 H6            1 RES     
   15606 H6        -212.1552   -46.0944   124.8855 H6            1 RES     
   15607 H6        -213.1526   -44.0101   123.9653 H6            1 RES     
   15608 H6        -213.0965   -44.7099   122.2916 H6            1 RES     
   15609 H6        -211.5706   -44.3917   123.1942 H6            1 RES     
   15610 C0        -217.6175   -66.5184   128.6409 C0            1 RES     
   15611 C1        -217.8938   -66.5041   129.9796 C1            1 RES     
   15612 C1        -219.1828   -66.2252   130.2578 C1            1 RES     
   15613 C1        -219.8590   -65.9711   129.1814 C1            1 RES     
   15614 C1        -218.9872   -66.0571   127.9968 C1            1 RES     
   15615 C1        -219.1299   -64.5882   127.6276 C1            1 RES     
   15616 C1        -220.1739   -63.9056   128.1817 C1            1 RES     
   15617 S2        -221.3063   -64.9729   129.1352 S2            1 RES     
   15618 C1        -220.3452   -62.3962   128.0708 C1            1 RES     
   15619 C1        -219.6224   -61.6381   127.1032 C1            1 RES     
   15620 N3        -219.7512   -60.2825   127.0128 N3            1 RES     
   15621 C1        -220.5472   -59.5659   127.8375 C1            1 RES     
   15622 C1        -221.2671   -60.2327   128.8209 C1            1 RES     
   15623 C1        -221.1752   -61.6532   128.9369 C1            1 RES     
   15624 N3        -221.9180   -62.1891   129.9461 N3            1 RES     
   15625 S2        -222.6419   -60.8584   130.6168 S2            1 RES     
   15626 N3        -222.0720   -59.6012   129.7098 N3            1 RES     
   15627 S2        -219.5023   -66.0803   131.8944 S2            1 RES     
   15628 C1        -217.8937   -66.4082   132.3094 C1            1 RES     
   15629 C1        -217.1234   -66.5767   131.1523 C1            1 RES     
   15630 C0        -217.1480   -68.0103   128.2828 C0            1 RES     
   15631 C0        -217.0490   -69.5091   128.8646 C0            1 RES     
   15632 C0        -216.3714   -69.6652   130.2625 C0            1 RES     
   15633 C0        -217.3216   -70.3387   131.2706 C0            1 RES     
   15634 C0        -216.7959   -70.3584   132.7173 C0            1 RES     
   15635 C0        -217.7724   -71.1518   133.6064 C0            1 RES     
   15636 C0        -217.4360   -71.0564   135.0998 C0            1 RES     
   15637 C0        -218.4167   -71.8916   135.9262 C0            1 RES     
   15638 C0        -216.2270   -70.3148   127.7627 C0            1 RES     
   15639 C0        -215.8174   -71.8204   127.8062 C0            1 RES     
   15640 C0        -214.5299   -72.1955   128.6024 C0            1 RES     
   15641 C0        -213.8390   -73.4619   128.0097 C0            1 RES     
   15642 C0        -212.5028   -73.8167   128.6945 C0            1 RES     
   15643 C0        -211.5709   -74.7154   127.8405 C0            1 RES     
   15644 C0        -212.1577   -76.0708   127.4199 C0            1 RES     
   15645 C0        -211.1280   -76.8816   126.6213 C0            1 RES     
   15646 C0        -216.3171   -65.6642   128.2505 C0            1 RES     
   15647 C0        -215.5478   -65.6261   126.8037 C0            1 RES     
   15648 C0        -214.9849   -67.0361   126.3612 C0            1 RES     
   15649 C0        -213.9793   -67.1114   125.2168 C0            1 RES     
   15650 C0        -213.3644   -68.5001   124.9659 C0            1 RES     
   15651 C0        -214.3542   -69.4934   124.3226 C0            1 RES     
   15652 C0        -213.6345   -70.6543   123.6125 C0            1 RES     
   15653 C0        -212.8882   -71.5831   124.5544 C0            1 RES     
   15654 C0        -216.1646   -64.7869   125.5938 C0            1 RES     
   15655 C0        -215.0385   -64.1520   124.6923 C0            1 RES     
   15656 C0        -215.3102   -63.1477   123.5385 C0            1 RES     
   15657 C0        -215.6187   -63.6980   122.1074 C0            1 RES     
   15658 C0        -215.0251   -62.7080   121.0572 C0            1 RES     
   15659 C0        -215.1911   -63.0683   119.5650 C0            1 RES     
   15660 C0        -214.3196   -62.1130   118.7113 C0            1 RES     
   15661 C0        -214.4536   -62.3421   117.2065 C0            1 RES     
   15662 H4        -218.3989   -64.0961   127.0412 H4            1 RES     
   15663 H5        -218.9667   -62.1215   126.3974 H5            1 RES     
   15664 H4        -216.0547   -66.7162   131.1897 H4            1 RES     
   15665 H6        -217.6118   -68.1635   127.2849 H6            1 RES     
   15666 H6        -216.0795   -67.9357   128.2619 H6            1 RES     
   15667 H6        -218.0725   -69.9423   128.9054 H6            1 RES     
   15668 H6        -215.4408   -70.2581   130.2088 H6            1 RES     
   15669 H6        -216.0132   -68.7086   130.6248 H6            1 RES     
   15670 H6        -218.2885   -69.7889   131.2800 H6            1 RES     
   15671 H6        -217.5036   -71.3799   130.9235 H6            1 RES     
   15672 H6        -215.7891   -70.8282   132.7718 H6            1 RES     
   15673 H6        -216.7201   -69.3087   133.0778 H6            1 RES     
   15674 H6        -217.7541   -72.2181   133.2874 H6            1 RES     
   15675 H6        -218.8025   -70.7573   133.4659 H6            1 RES     
   15676 H6        -216.4034   -71.4185   135.2917 H6            1 RES     
   15677 H6        -217.5103   -69.9948   135.4233 H6            1 RES     
   15678 H6        -219.4617   -71.5571   135.7479 H6            1 RES     
   15679 H6        -218.3318   -72.9657   135.6539 H6            1 RES     
   15680 H6        -218.1921   -71.7823   137.0080 H6            1 RES     
   15681 H6        -216.8454   -70.2237   126.8428 H6            1 RES     
   15682 H6        -215.2718   -69.7823   127.5568 H6            1 RES     
   15683 H6        -216.6663   -72.4980   128.0278 H6            1 RES     
   15684 H6        -215.5378   -72.0074   126.7450 H6            1 RES     
   15685 H6        -213.7901   -71.3714   128.4868 H6            1 RES     
   15686 H6        -214.7523   -72.3255   129.6810 H6            1 RES     
   15687 H6        -214.5163   -74.3418   128.0228 H6            1 RES     
   15688 H6        -213.5982   -73.2399   126.9592 H6            1 RES     
   15689 H6        -211.9237   -72.8821   128.8614 H6            1 RES     
   15690 H6        -212.7043   -74.2765   129.6853 H6            1 RES     
   15691 H6        -210.6420   -74.8956   128.4258 H6            1 RES     
   15692 H6        -211.2850   -74.1590   126.9198 H6            1 RES     
   15693 H6        -213.0495   -75.9097   126.7781 H6            1 RES     
   15694 H6        -212.4534   -76.6525   128.3175 H6            1 RES     
   15695 H6        -210.2298   -77.0908   127.2419 H6            1 RES     
   15696 H6        -210.8106   -76.3295   125.7100 H6            1 RES     
   15697 H6        -211.5680   -77.8515   126.3059 H6            1 RES     
   15698 H6        -216.5262   -64.6084   128.5306 H6            1 RES     
   15699 H6        -215.5147   -65.9793   128.9561 H6            1 RES     
   15700 H6        -214.6551   -65.0294   127.0911 H6            1 RES     
   15701 H6        -215.8216   -67.7010   126.0747 H6            1 RES     
   15702 H6        -214.4083   -67.4334   127.2238 H6            1 RES     
   15703 H6        -214.4748   -66.8484   124.2656 H6            1 RES     
   15704 H6        -213.1470   -66.4168   125.4625 H6            1 RES     
   15705 H6        -212.5546   -68.3218   124.2271 H6            1 RES     
   15706 H6        -212.8999   -68.9185   125.8865 H6            1 RES     
   15707 H6        -214.9103   -68.9652   123.5193 H6            1 RES     
   15708 H6        -215.0951   -69.8610   125.0635 H6            1 RES     
   15709 H6        -212.9205   -70.2394   122.8682 H6            1 RES     
   15710 H6        -214.3878   -71.2586   123.0621 H6            1 RES     
   15711 H6        -212.3862   -72.3823   123.9677 H6            1 RES     
   15712 H6        -213.6265   -72.0473   125.2237 H6            1 RES     
   15713 H6        -212.1194   -71.0429   125.1439 H6            1 RES     
   15714 H6        -216.9201   -65.3769   125.0300 H6            1 RES     
   15715 H6        -216.6443   -63.8842   126.0055 H6            1 RES     
   15716 H6        -214.4281   -63.5724   125.4179 H6            1 RES     
   15717 H6        -214.3466   -64.8588   124.2467 H6            1 RES     
   15718 H6        -214.3024   -62.6857   123.4369 H6            1 RES     
   15719 H6        -215.9902   -62.3188   123.8245 H6            1 RES     
   15720 H6        -216.7102   -63.8621   121.9752 H6            1 RES     
   15721 H6        -215.0951   -64.6657   121.9471 H6            1 RES     
   15722 H6        -213.9285   -62.6717   121.2476 H6            1 RES     
   15723 H6        -215.4408   -61.6902   121.2191 H6            1 RES     
   15724 H6        -216.2608   -62.9789   119.2769 H6            1 RES     
   15725 H6        -214.8517   -64.1101   119.3769 H6            1 RES     
   15726 H6        -213.2500   -62.2590   118.9840 H6            1 RES     
   15727 H6        -214.5914   -61.0564   118.9239 H6            1 RES     
   15728 H6        -215.4929   -62.1395   116.8744 H6            1 RES     
   15729 H6        -214.1697   -63.3803   116.9357 H6            1 RES     
   15730 H6        -213.7740   -61.6436   116.6681 H6            1 RES     
   15731 C0        -213.1791   -64.7149   140.0355 C0            1 RES     
   15732 C1        -214.1981   -63.9507   140.5319 C1            1 RES     
   15733 C1        -215.3722   -64.6081   140.6096 C1            1 RES     
   15734 C1        -215.2786   -65.8099   140.1328 C1            1 RES     
   15735 C1        -213.9115   -66.0620   139.6446 C1            1 RES     
   15736 C1        -214.3266   -66.2394   138.1918 C1            1 RES     
   15737 C1        -215.6475   -66.4805   137.9467 C1            1 RES     
   15738 S2        -216.6297   -66.7174   139.4664 S2            1 RES     
   15739 C1        -216.2558   -66.4886   136.5503 C1            1 RES     
   15740 C1        -215.4371   -66.5833   135.3865 C1            1 RES     
   15741 N3        -215.9715   -66.5668   134.1310 N3            1 RES     
   15742 C1        -217.2976   -66.4395   133.9011 C1            1 RES     
   15743 C1        -218.1575   -66.3201   134.9857 C1            1 RES     
   15744 C1        -217.6406   -66.3521   136.3166 C1            1 RES     
   15745 N3        -218.5807   -66.2137   137.2937 N3            1 RES     
   15746 S2        -219.9883   -66.0694   136.4321 S2            1 RES     
   15747 N3        -219.4977   -66.1640   134.8579 N3            1 RES     
   15748 S2        -216.6520   -63.6452   141.0957 S2            1 RES     
   15749 C1        -215.6614   -62.2796   141.2410 C1            1 RES     
   15750 C1        -214.3518   -62.5925   140.8570 C1            1 RES     
   15751 C0        -212.0814   -64.8326   141.1998 C0            1 RES     
   15752 C0        -211.8161   -64.5377   142.7610 C0            1 RES     
   15753 C0        -212.1420   -63.0938   143.2574 C0            1 RES     
   15754 C0        -213.1756   -63.1167   144.3994 C0            1 RES     
   15755 C0        -213.6878   -61.7258   144.8150 C0            1 RES     
   15756 C0        -214.6225   -61.8666   146.0315 C0            1 RES     
   15757 C0        -215.3381   -60.5588   146.3923 C0            1 RES     
   15758 C0        -216.2219   -60.7524   147.6266 C0            1 RES     
   15759 C0        -210.2693   -64.8556   142.9732 C0            1 RES     
   15760 C0        -209.4545   -64.7303   144.2988 C0            1 RES     
   15761 C0        -208.9046   -63.3209   144.6776 C0            1 RES     
   15762 C0        -207.5915   -63.4245   145.5128 C0            1 RES     
   15763 C0        -206.9467   -62.0582   145.8258 C0            1 RES     
   15764 C0        -205.4407   -62.1352   146.1881 C0            1 RES     
   15765 C0        -205.0931   -63.0099   147.4014 C0            1 RES     
   15766 C0        -203.5850   -62.9689   147.6836 C0            1 RES     
   15767 C0        -212.3461   -63.9876   138.8735 C0            1 RES     
   15768 C0        -210.9358   -64.4817   138.2003 C0            1 RES     
   15769 C0        -209.7512   -64.5847   139.2429 C0            1 RES     
   15770 C0        -208.3193   -64.7144   138.7337 C0            1 RES     
   15771 C0        -207.2237   -64.6423   139.8127 C0            1 RES     
   15772 C0        -207.1548   -65.9087   140.6913 C0            1 RES     
   15773 C0        -205.7885   -66.0627   141.3837 C0            1 RES     
   15774 C0        -205.5019   -64.9927   142.4230 C0            1 RES     
   15775 C0        -210.9345   -65.6642   137.1278 C0            1 RES     
   15776 C0        -209.8292   -65.4487   136.0252 C0            1 RES     
   15777 C0        -209.6821   -66.3322   134.7558 C0            1 RES     
   15778 C0        -208.8175   -67.6333   134.8300 C0            1 RES     
   15779 C0        -208.1241   -67.8471   133.4485 C0            1 RES     
   15780 C0        -207.1925   -69.0695   133.3004 C0            1 RES     
   15781 C0        -206.4125   -68.9558   131.9664 C0            1 RES     
   15782 C0        -205.4993   -70.1486   131.6873 C0            1 RES     
   15783 H4        -213.6378   -66.0903   137.4020 H4            1 RES     
   15784 H5        -214.3680   -66.6936   135.4684 H5            1 RES     
   15785 H4        -213.5765   -61.8451   140.7998 H4            1 RES     
   15786 H6        -211.7373   -65.8828   141.0855 H6            1 RES     
   15787 H6        -211.3494   -64.1000   140.9254 H6            1 RES     
   15788 H6        -212.3967   -65.2700   143.3641 H6            1 RES     
   15789 H6        -211.2402   -62.5634   143.6122 H6            1 RES     
   15790 H6        -212.4665   -62.4685   142.4338 H6            1 RES     
   15791 H6        -214.0597   -63.7090   144.0757 H6            1 RES     
   15792 H6        -212.7061   -63.6200   145.2733 H6            1 RES     
   15793 H6        -212.8444   -61.0504   145.0793 H6            1 RES     
   15794 H6        -214.2428   -61.2852   143.9575 H6            1 RES     
   15795 H6        -214.0210   -62.2147   146.9010 H6            1 RES     
   15796 H6        -215.4017   -62.6288   145.8114 H6            1 RES     
   15797 H6        -214.6006   -59.7542   146.5997 H6            1 RES     
   15798 H6        -215.9797   -60.2468   145.5391 H6            1 RES     
   15799 H6        -216.9662   -61.5593   147.4517 H6            1 RES     
   15800 H6        -215.5996   -61.0223   148.5070 H6            1 RES     
   15801 H6        -216.7684   -59.8132   147.8545 H6            1 RES     
   15802 H6        -210.1711   -65.9264   142.6894 H6            1 RES     
   15803 H6        -209.6719   -64.2756   142.2348 H6            1 RES     
   15804 H6        -209.9337   -65.2438   145.1564 H6            1 RES     
   15805 H6        -208.5397   -65.3163   144.0558 H6            1 RES     
   15806 H6        -208.6206   -62.7889   143.7415 H6            1 RES     
   15807 H6        -209.6732   -62.7228   145.2079 H6            1 RES     
   15808 H6        -207.7483   -63.9933   146.4535 H6            1 RES     
   15809 H6        -206.8612   -63.9784   144.9039 H6            1 RES     
   15810 H6        -206.9890   -61.4222   144.9145 H6            1 RES     
   15811 H6        -207.5253   -61.5495   146.6258 H6            1 RES     
   15812 H6        -205.0839   -61.0994   146.3818 H6            1 RES     
   15813 H6        -204.8817   -62.5236   145.3073 H6            1 RES     
   15814 H6        -205.3823   -64.0629   147.1991 H6            1 RES     
   15815 H6        -205.6354   -62.6479   148.2994 H6            1 RES     
   15816 H6        -203.2607   -61.9327   147.9218 H6            1 RES     
   15817 H6        -203.0083   -63.3294   146.8042 H6            1 RES     
   15818 H6        -203.3416   -63.6191   148.5507 H6            1 RES     
   15819 H6        -213.0532   -63.8003   138.0358 H6            1 RES     
   15820 H6        -212.1017   -62.9703   139.2562 H6            1 RES     
   15821 H6        -210.7081   -63.5856   137.5832 H6            1 RES     
   15822 H6        -209.9151   -65.4500   139.9127 H6            1 RES     
   15823 H6        -209.7305   -63.6218   139.7970 H6            1 RES     
   15824 H6        -208.1794   -65.7010   138.2579 H6            1 RES     
   15825 H6        -208.1444   -63.8774   138.0235 H6            1 RES     
   15826 H6        -206.2707   -64.5866   139.2451 H6            1 RES     
   15827 H6        -207.3091   -63.7183   140.4269 H6            1 RES     
   15828 H6        -207.2458   -66.7986   140.0331 H6            1 RES     
   15829 H6        -207.9911   -65.9389   141.4210 H6            1 RES     
   15830 H6        -204.9864   -66.0474   140.6141 H6            1 RES     
   15831 H6        -205.7547   -67.0507   141.8919 H6            1 RES     
   15832 H6        -204.4968   -65.1639   142.8650 H6            1 RES     
   15833 H6        -206.2569   -65.0843   143.2167 H6            1 RES     
   15834 H6        -205.5252   -63.9741   141.9844 H6            1 RES     
   15835 H6        -210.8994   -66.6615   137.6186 H6            1 RES     
   15836 H6        -211.8550   -65.5893   136.5264 H6            1 RES     
   15837 H6        -210.0611   -64.4377   135.6263 H6            1 RES     
   15838 H6        -208.8120   -65.3766   136.3952 H6            1 RES     
   15839 H6        -209.0860   -65.6504   134.1083 H6            1 RES     
   15840 H6        -210.6382   -66.4944   134.2165 H6            1 RES     
   15841 H6        -209.4387   -68.5020   135.1388 H6            1 RES     
   15842 H6        -207.9966   -67.5071   135.5692 H6            1 RES     
   15843 H6        -207.4879   -66.9494   133.2765 H6            1 RES     
   15844 H6        -208.8891   -67.8914   132.6437 H6            1 RES     
   15845 H6        -207.7964   -70.0024   133.3182 H6            1 RES     
   15846 H6        -206.4559   -69.0996   134.1325 H6            1 RES     
   15847 H6        -205.7784   -68.0409   131.9955 H6            1 RES     
   15848 H6        -207.1223   -68.8597   131.1165 H6            1 RES     
   15849 H6        -206.0967   -71.0776   131.5800 H6            1 RES     
   15850 H6        -204.7521   -70.2754   132.4980 H6            1 RES     
   15851 H6        -204.9519   -69.9750   130.7334 H6            1 RES     
   15852 C0        -217.7271   -53.3087   141.4502 C0            1 RES     
   15853 C1        -219.0253   -53.5634   141.1055 C1            1 RES     
   15854 C1        -219.6510   -54.4014   141.9557 C1            1 RES     
   15855 C1        -218.8502   -54.8269   142.8820 C1            1 RES     
   15856 C1        -217.5026   -54.2618   142.6931 C1            1 RES     
   15857 C1        -216.8367   -55.6053   142.4363 C1            1 RES     
   15858 C1        -217.5206   -56.7225   142.8199 C1            1 RES     
   15859 S2        -219.0511   -56.3485   143.7408 S2            1 RES     
   15860 C1        -217.0868   -58.1381   142.4624 C1            1 RES     
   15861 C1        -215.7664   -58.4132   141.9992 C1            1 RES     
   15862 N3        -215.3764   -59.6744   141.6535 N3            1 RES     
   15863 C1        -216.2090   -60.7382   141.7039 C1            1 RES     
   15864 C1        -217.5187   -60.5449   142.1250 C1            1 RES     
   15865 C1        -217.9615   -59.2440   142.5139 C1            1 RES     
   15866 N3        -219.2684   -59.1804   142.8956 N3            1 RES     
   15867 S2        -219.7771   -60.7482   142.7292 S2            1 RES     
   15868 N3        -218.4344   -61.5422   142.1864 N3            1 RES     
   15869 S2        -221.1983   -54.8187   141.4730 S2            1 RES     
   15870 C1        -221.0987   -53.8598   140.0809 C1            1 RES     
   15871 C1        -219.8328   -53.2677   139.9944 C1            1 RES     
   15872 C0        -217.6304   -51.7360   141.7532 C0            1 RES     
   15873 C0        -218.5107   -50.4041   141.9667 C0            1 RES     
   15874 C0        -219.5752   -50.0947   140.8672 C0            1 RES     
   15875 C0        -220.9890   -49.9984   141.4712 C0            1 RES     
   15876 C0        -222.1145   -49.8819   140.4275 C0            1 RES     
   15877 C0        -223.4614   -49.6790   141.1473 C0            1 RES     
   15878 C0        -224.6648   -49.7525   140.1991 C0            1 RES     
   15879 C0        -225.9677   -49.5083   140.9642 C0            1 RES     
   15880 C0        -217.4427   -49.2243   142.0447 C0            1 RES     
   15881 C0        -217.7320   -47.7018   142.2317 C0            1 RES     
   15882 C0        -218.0997   -46.8756   140.9611 C0            1 RES     
   15883 C0        -217.6558   -45.3867   141.0984 C0            1 RES     
   15884 C0        -217.9010   -44.5472   139.8274 C0            1 RES     
   15885 C0        -217.0422   -43.2584   139.7426 C0            1 RES     
   15886 C0        -217.2206   -42.2639   140.8990 C0            1 RES     
   15887 C0        -216.3548   -41.0161   140.6777 C0            1 RES     
   15888 C0        -216.7010   -53.4696   140.2278 C0            1 RES     
   15889 C0        -215.1206   -53.0367   140.1905 C0            1 RES     
   15890 C0        -214.8940   -51.4888   140.4221 C0            1 RES     
   15891 C0        -213.5335   -50.8785   140.1013 C0            1 RES     
   15892 C0        -213.4558   -49.3444   140.2007 C0            1 RES     
   15893 C0        -213.4792   -48.8298   141.6550 C0            1 RES     
   15894 C0        -212.8922   -47.4122   141.7800 C0            1 RES     
   15895 C0        -213.7235   -46.3400   141.0970 C0            1 RES     
   15896 C0        -214.0263   -53.9477   140.9123 C0            1 RES     
   15897 C0        -212.6576   -53.9424   140.1310 C0            1 RES     
   15898 C0        -211.4509   -54.8555   140.4829 C0            1 RES     
   15899 C0        -210.4125   -54.3684   141.5461 C0            1 RES     
   15900 C0        -209.0022   -54.9000   141.1413 C0            1 RES     
   15901 C0        -207.8097   -54.5151   142.0434 C0            1 RES     
   15902 C0        -206.4889   -54.9120   141.3371 C0            1 RES     
   15903 C0        -205.2398   -54.6294   142.1706 C0            1 RES     
   15904 H4        -215.9263   -55.6732   141.9008 H4            1 RES     
   15905 H5        -215.0289   -57.6302   141.9302 H5            1 RES     
   15906 H4        -219.5315   -52.6793   139.1423 H4            1 RES     
   15907 H6        -216.9326   -51.7113   142.6174 H6            1 RES     
   15908 H6        -217.2208   -51.3340   140.8485 H6            1 RES     
   15909 H6        -219.0161   -50.4674   142.9554 H6            1 RES     
   15910 H6        -219.3580   -49.1527   140.3326 H6            1 RES     
   15911 H6        -219.5277   -50.8270   140.0696 H6            1 RES     
   15912 H6        -221.1900   -50.9138   142.0702 H6            1 RES     
   15913 H6        -221.0109   -49.1148   142.1467 H6            1 RES     
   15914 H6        -221.9362   -49.0265   139.7392 H6            1 RES     
   15915 H6        -222.1392   -50.8208   139.8313 H6            1 RES     
   15916 H6        -223.4458   -48.6879   141.6538 H6            1 RES     
   15917 H6        -223.5899   -50.4695   141.9186 H6            1 RES     
   15918 H6        -224.5733   -48.9945   139.3920 H6            1 RES     
   15919 H6        -224.7053   -50.7642   139.7389 H6            1 RES     
   15920 H6        -226.0830   -50.2481   141.7857 H6            1 RES     
   15921 H6        -225.9729   -48.4854   141.3985 H6            1 RES     
   15922 H6        -226.8356   -49.6058   140.2787 H6            1 RES     
   15923 H6        -216.8052   -49.4928   142.9156 H6            1 RES     
   15924 H6        -216.7865   -49.2647   141.1468 H6            1 RES     
   15925 H6        -218.4033   -47.4864   143.0873 H6            1 RES     
   15926 H6        -216.7278   -47.3163   142.5183 H6            1 RES     
   15927 H6        -217.5236   -47.2793   140.0979 H6            1 RES     
   15928 H6        -219.1824   -46.9539   140.7345 H6            1 RES     
   15929 H6        -218.1323   -44.8964   141.9734 H6            1 RES     
   15930 H6        -216.5681   -45.3852   141.2645 H6            1 RES     
   15931 H6        -217.6064   -45.1456   138.9375 H6            1 RES     
   15932 H6        -218.9832   -44.3134   139.7402 H6            1 RES     
   15933 H6        -217.2937   -42.7442   138.7885 H6            1 RES     
   15934 H6        -215.9685   -43.5482   139.6950 H6            1 RES     
   15935 H6        -216.9104   -42.7397   141.8532 H6            1 RES     
   15936 H6        -218.2835   -41.9537   140.9736 H6            1 RES     
   15937 H6        -216.6563   -40.4925   139.7446 H6            1 RES     
   15938 H6        -215.2798   -41.2891   140.6015 H6            1 RES     
   15939 H6        -216.4765   -40.3119   141.5280 H6            1 RES     
   15940 H6        -216.7507   -54.5311   139.8999 H6            1 RES     
   15941 H6        -217.1399   -52.9007   139.3764 H6            1 RES     
   15942 H6        -214.9138   -53.2065   139.1116 H6            1 RES     
   15943 H6        -215.1000   -51.2336   141.4788 H6            1 RES     
   15944 H6        -215.5742   -50.9593   139.7211 H6            1 RES     
   15945 H6        -212.7803   -51.2444   140.8212 H6            1 RES     
   15946 H6        -213.2845   -51.1586   139.0548 H6            1 RES     
   15947 H6        -212.4625   -49.0832   139.7781 H6            1 RES     
   15948 H6        -214.2327   -48.8502   139.5757 H6            1 RES     
   15949 H6        -212.8112   -49.4728   142.2663 H6            1 RES     
   15950 H6        -214.4998   -48.8916   142.0880 H6            1 RES     
   15951 H6        -211.8655   -47.4042   141.3535 H6            1 RES     
   15952 H6        -212.8157   -47.1507   142.8577 H6            1 RES     
   15953 H6        -213.2289   -45.3524   141.2193 H6            1 RES     
   15954 H6        -214.7038   -46.3078   141.5934 H6            1 RES     
   15955 H6        -213.8465   -46.5408   140.0131 H6            1 RES     
   15956 H6        -213.9348   -53.6989   141.9923 H6            1 RES     
   15957 H6        -214.3285   -55.0025   140.8084 H6            1 RES     
   15958 H6        -212.9479   -54.2599   139.1064 H6            1 RES     
   15959 H6        -212.2001   -52.9672   140.0023 H6            1 RES     
   15960 H6        -210.8888   -54.8193   139.5226 H6            1 RES     
   15961 H6        -211.7286   -55.9203   140.6253 H6            1 RES     
   15962 H6        -210.7154   -54.6865   142.5673 H6            1 RES     
   15963 H6        -210.3385   -53.2591   141.5303 H6            1 RES     
   15964 H6        -208.7832   -54.4705   140.1374 H6            1 RES     
   15965 H6        -209.0271   -56.0071   141.0487 H6            1 RES     
   15966 H6        -207.8986   -55.0365   143.0209 H6            1 RES     
   15967 H6        -207.7940   -53.4175   142.2191 H6            1 RES     
   15968 H6        -206.4010   -54.3386   140.3867 H6            1 RES     
   15969 H6        -206.4994   -55.9955   141.0896 H6            1 RES     
   15970 H6        -205.2490   -55.2349   143.1005 H6            1 RES     
   15971 H6        -205.1679   -53.5518   142.4261 H6            1 RES     
   15972 H6        -204.3366   -54.9088   141.5825 H6            1 RES     
   15973 C0        -225.9784   -54.0136   132.2736 C0            1 RES     
   15974 C1        -226.5803   -55.1877   132.6313 C1            1 RES     
   15975 C1        -227.2296   -55.1196   133.8105 C1            1 RES     
   15976 C1        -227.0809   -53.9600   134.3707 C1            1 RES     
   15977 C1        -226.2319   -53.0929   133.5353 C1            1 RES     
   15978 C1        -225.1138   -52.9841   134.5611 C1            1 RES     
   15979 C1        -225.4148   -53.3234   135.8484 C1            1 RES     
   15980 S2        -227.1867   -53.6780   136.1035 S2            1 RES     
   15981 C1        -224.3705   -53.4556   136.9493 C1            1 RES     
   15982 C1        -223.0625   -52.9079   136.7988 C1            1 RES     
   15983 N3        -222.1130   -53.0427   137.7696 N3            1 RES     
   15984 C1        -222.3335   -53.7152   138.9214 C1            1 RES     
   15985 C1        -223.5781   -54.2960   139.1308 C1            1 RES     
   15986 C1        -224.6056   -54.1618   138.1480 C1            1 RES     
   15987 N3        -225.7762   -54.7848   138.4628 N3            1 RES     
   15988 S2        -225.4516   -55.4512   139.9444 S2            1 RES     
   15989 N3        -223.8879   -55.0098   140.2404 N3            1 RES     
   15990 S2        -227.8611   -56.5844   134.3170 S2            1 RES     
   15991 C1        -227.2918   -57.3868   132.9389 C1            1 RES     
   15992 C1        -226.5725   -56.4997   132.1288 C1            1 RES     
   15993 C0        -226.6764   -53.5339   130.9109 C0            1 RES     
   15994 C0        -227.9136   -53.8231   129.9207 C0            1 RES     
   15995 C0        -228.0975   -55.3026   129.4572 C0            1 RES     
   15996 C0        -229.4912   -55.8371   129.8378 C0            1 RES     
   15997 C0        -229.6809   -57.3431   129.5824 C0            1 RES     
   15998 C0        -231.1382   -57.7356   129.8921 C0            1 RES     
   15999 C0        -231.3708   -59.2513   129.8588 C0            1 RES     
   16000 C0        -232.8402   -59.5759   130.1377 C0            1 RES     
   16001 C0        -227.6501   -52.8819   128.6624 C0            1 RES     
   16002 C0        -228.5283   -52.7578   127.3778 C0            1 RES     
   16003 C0        -228.3111   -53.8130   126.2502 C0            1 RES     
   16004 C0        -228.6341   -53.2221   124.8434 C0            1 RES     
   16005 C0        -228.3358   -54.1913   123.6807 C0            1 RES     
   16006 C0        -228.1590   -53.4970   122.3052 C0            1 RES     
   16007 C0        -229.3592   -52.6721   121.8181 C0            1 RES     
   16008 C0        -229.0787   -52.0753   120.4322 C0            1 RES     
   16009 C0        -224.4527   -54.1954   131.8128 C0            1 RES     
   16010 C0        -223.4851   -53.0760   131.1077 C0            1 RES     
   16011 C0        -224.0395   -52.5605   129.7192 C0            1 RES     
   16012 C0        -223.1171   -51.7727   128.7945 C0            1 RES     
   16013 C0        -223.6896   -51.4560   127.4012 C0            1 RES     
   16014 C0        -224.7871   -50.3720   127.4293 C0            1 RES     
   16015 C0        -224.9762   -49.6998   126.0574 C0            1 RES     
   16016 C0        -225.5338   -50.6261   124.9905 C0            1 RES     
   16017 C0        -222.8269   -51.9203   131.9906 C0            1 RES     
   16018 C0        -221.3936   -51.5304   131.4639 C0            1 RES     
   16019 C0        -220.4294   -50.5607   132.2012 C0            1 RES     
   16020 C0        -220.5350   -49.0252   131.9236 C0            1 RES     
   16021 C0        -219.1054   -48.4059   132.0127 C0            1 RES     
   16022 C0        -218.9670   -46.8914   131.7455 C0            1 RES     
   16023 C0        -217.4648   -46.5318   131.6239 C0            1 RES     
   16024 C0        -217.2070   -45.0400   131.4169 C0            1 RES     
   16025 H4        -224.1243   -52.7451   134.2712 H4            1 RES     
   16026 H5        -222.7936   -52.3494   135.9170 H5            1 RES     
   16027 H4        -226.0567   -56.8246   131.2392 H4            1 RES     
   16028 H6        -226.7276   -52.4334   131.0543 H6            1 RES     
   16029 H6        -225.9839   -53.8448   130.1548 H6            1 RES     
   16030 H6        -228.8495   -53.4760   130.4113 H6            1 RES     
   16031 H6        -227.9655   -55.4152   128.3662 H6            1 RES     
   16032 H6        -227.3054   -55.9295   129.8498 H6            1 RES     
   16033 H6        -229.6613   -55.6641   130.9234 H6            1 RES     
   16034 H6        -230.2464   -55.2605   129.2593 H6            1 RES     
   16035 H6        -229.4499   -57.6030   128.5258 H6            1 RES     
   16036 H6        -228.9865   -57.9025   130.2476 H6            1 RES     
   16037 H6        -231.8031   -57.2399   129.1497 H6            1 RES     
   16038 H6        -231.4093   -57.3742   130.9081 H6            1 RES     
   16039 H6        -231.0916   -59.6679   128.8674 H6            1 RES     
   16040 H6        -230.7439   -59.7338   130.6406 H6            1 RES     
   16041 H6        -233.1515   -59.1632   131.1218 H6            1 RES     
   16042 H6        -233.4873   -59.1421   129.3452 H6            1 RES     
   16043 H6        -232.9905   -60.6758   130.1542 H6            1 RES     
   16044 H6        -227.6395   -51.8550   129.0893 H6            1 RES     
   16045 H6        -226.6263   -53.0731   128.2704 H6            1 RES     
   16046 H6        -229.6013   -52.5852   127.5970 H6            1 RES     
   16047 H6        -228.1444   -51.8117   126.9343 H6            1 RES     
   16048 H6        -227.2306   -54.0803   126.2196 H6            1 RES     
   16049 H6        -228.8998   -54.7322   126.4459 H6            1 RES     
   16050 H6        -229.6842   -52.8667   124.7799 H6            1 RES     
   16051 H6        -227.9764   -52.3522   124.6968 H6            1 RES     
   16052 H6        -227.3639   -54.6965   123.8726 H6            1 RES     
   16053 H6        -229.1249   -54.9717   123.6366 H6            1 RES     
   16054 H6        -227.9395   -54.2856   121.5517 H6            1 RES     
   16055 H6        -227.2727   -52.8255   122.3563 H6            1 RES     
   16056 H6        -229.5519   -51.8379   122.5254 H6            1 RES     
   16057 H6        -230.2621   -53.3143   121.7554 H6            1 RES     
   16058 H6        -228.9104   -52.8824   119.6866 H6            1 RES     
   16059 H6        -228.1801   -51.4211   120.4579 H6            1 RES     
   16060 H6        -229.9446   -51.4655   120.0973 H6            1 RES     
   16061 H6        -223.8950   -54.5962   132.6875 H6            1 RES     
   16062 H6        -224.4473   -55.0336   131.0790 H6            1 RES     
   16063 H6        -222.6166   -53.7227   130.8564 H6            1 RES     
   16064 H6        -224.9253   -51.9183   129.8841 H6            1 RES     
   16065 H6        -224.2804   -53.4632   129.1179 H6            1 RES     
   16066 H6        -222.8972   -50.7856   129.2380 H6            1 RES     
   16067 H6        -222.1984   -52.3810   128.6481 H6            1 RES     
   16068 H6        -222.8327   -51.0381   126.8315 H6            1 RES     
   16069 H6        -224.0316   -52.3758   126.8763 H6            1 RES     
   16070 H6        -224.4579   -49.5559   128.1067 H6            1 RES     
   16071 H6        -225.7429   -50.7765   127.8241 H6            1 RES     
   16072 H6        -224.0004   -49.2933   125.7133 H6            1 RES     
   16073 H6        -225.6798   -48.8468   126.1713 H6            1 RES     
   16074 H6        -225.6274   -50.0736   124.0309 H6            1 RES     
   16075 H6        -226.5350   -50.9458   125.3128 H6            1 RES     
   16076 H6        -224.8814   -51.5081   124.8273 H6            1 RES     
   16077 H6        -223.5167   -51.0568   132.1141 H6            1 RES     
   16078 H6        -222.5855   -52.3352   132.9826 H6            1 RES     
   16079 H6        -220.8513   -52.5004   131.4596 H6            1 RES     
   16080 H6        -221.3546   -51.1838   130.4367 H6            1 RES     
   16081 H6        -219.4612   -50.8517   131.7348 H6            1 RES     
   16082 H6        -220.3181   -50.7846   133.2823 H6            1 RES     
   16083 H6        -221.2554   -48.5471   132.6225 H6            1 RES     
   16084 H6        -220.8827   -48.8463   130.8828 H6            1 RES     
   16085 H6        -218.4954   -48.9157   131.2328 H6            1 RES     
   16086 H6        -218.6578   -48.6278   133.0053 H6            1 RES     
   16087 H6        -219.4360   -46.3221   132.5768 H6            1 RES     
   16088 H6        -219.4684   -46.6179   130.7917 H6            1 RES     
   16089 H6        -217.0322   -47.0760   130.7541 H6            1 RES     
   16090 H6        -216.9208   -46.8511   132.5391 H6            1 RES     
   16091 H6        -217.5602   -44.4600   132.2946 H6            1 RES     
   16092 H6        -217.7107   -44.6733   130.4985 H6            1 RES     
   16093 H6        -216.1124   -44.8698   131.3051 H6            1 RES     
   16094 C0        -225.8593   -66.3365   131.3146 C0            1 RES     
   16095 C1        -226.0663   -66.6447   132.6303 C1            1 RES     
   16096 C1        -227.2679   -66.2451   133.0918 C1            1 RES     
   16097 C1        -227.9350   -65.5981   132.1879 C1            1 RES     
   16098 C1        -227.1494   -65.4979   130.9455 C1            1 RES     
   16099 C1        -227.0369   -63.9813   130.9888 C1            1 RES     
   16100 C1        -227.9113   -63.3151   131.7978 C1            1 RES     
   16101 S2        -229.1750   -64.4019   132.5409 S2            1 RES     
   16102 C1        -227.8076   -61.8264   132.1025 C1            1 RES     
   16103 C1        -227.0033   -60.9613   131.3035 C1            1 RES     
   16104 N3        -226.8852   -59.6309   131.5835 N3            1 RES     
   16105 C1        -227.4972   -59.0474   132.6382 C1            1 RES     
   16106 C1        -228.2811   -59.8307   133.4760 C1            1 RES     
   16107 C1        -228.4462   -61.2236   133.2069 C1            1 RES     
   16108 N3        -229.2274   -61.8862   134.1059 N3            1 RES     
   16109 S2        -229.6631   -60.6904   135.1665 S2            1 RES     
   16110 N3        -228.9146   -59.3440   134.5708 N3            1 RES     
   16111 S2        -227.4796   -66.5042   134.7317 S2            1 RES     
   16112 C1        -225.9411   -67.1929   134.8932 C1            1 RES     
   16113 C1        -225.2690   -67.1617   133.6652 C1            1 RES     
   16114 C0        -225.6887   -67.7291   130.5360 C0            1 RES     
   16115 C0        -225.8396   -69.3250   130.6933 C0            1 RES     
   16116 C0        -225.1385   -69.9676   131.9315 C0            1 RES     
   16117 C0        -226.1486   -70.7262   132.8129 C0            1 RES     
   16118 C0        -225.5692   -71.2279   134.1479 C0            1 RES     
   16119 C0        -226.6327   -72.0632   134.8861 C0            1 RES     
   16120 C0        -226.2159   -72.4376   136.3140 C0            1 RES     
   16121 C0        -227.2940   -73.2947   136.9814 C0            1 RES     
   16122 C0        -225.2313   -69.9212   129.3467 C0            1 RES     
   16123 C0        -225.1033   -71.4270   128.9558 C0            1 RES     
   16124 C0        -223.8712   -72.2122   129.5015 C0            1 RES     
   16125 C0        -223.4525   -73.3630   128.5356 C0            1 RES     
   16126 C0        -222.1740   -74.1065   128.9749 C0            1 RES     
   16127 C0        -221.4633   -74.8768   127.8318 C0            1 RES     
   16128 C0        -222.3076   -75.9494   127.1282 C0            1 RES     
   16129 C0        -221.4821   -76.6677   126.0520 C0            1 RES     
   16130 C0        -224.4437   -65.6336   131.0409 C0            1 RES     
   16131 C0        -223.7481   -65.3270   129.5888 C0            1 RES     
   16132 C0        -223.4745   -66.6341   128.7418 C0            1 RES     
   16133 C0        -222.5537   -66.5567   127.5282 C0            1 RES     
   16134 C0        -222.2164   -67.9047   126.8659 C0            1 RES     
   16135 C0        -223.4003   -68.5070   126.0811 C0            1 RES     
   16136 C0        -222.9394   -69.5304   125.0275 C0            1 RES     
   16137 C0        -222.3335   -70.7914   125.6190 C0            1 RES     
   16138 C0        -224.2556   -64.0988   128.7043 C0            1 RES     
   16139 C0        -223.0749   -63.4348   127.8986 C0            1 RES     
   16140 C0        -223.2106   -62.1222   127.0787 C0            1 RES     
   16141 C0        -223.6805   -62.2004   125.5891 C0            1 RES     
   16142 C0        -222.9645   -61.0719   124.7836 C0            1 RES     
   16143 C0        -223.2624   -60.9767   123.2715 C0            1 RES     
   16144 C0        -222.2708   -59.9805   122.6196 C0            1 RES     
   16145 C0        -222.5139   -59.7629   121.1268 C0            1 RES     
   16146 H4        -226.2559   -63.4743   130.4856 H4            1 RES     
   16147 H5        -226.4808   -61.3335   130.4373 H5            1 RES     
   16148 H4        -224.2435   -67.4796   133.5642 H4            1 RES     
   16149 H6        -226.2182   -67.5244   129.5810 H6            1 RES     
   16150 H6        -224.6267   -67.8280   130.4350 H6            1 RES     
   16151 H6        -226.9223   -69.5786   130.7154 H6            1 RES     
   16152 H6        -224.3359   -70.6674   131.6372 H6            1 RES     
   16153 H6        -224.5945   -69.2194   132.4962 H6            1 RES     
   16154 H6        -226.9966   -70.0490   133.0568 H6            1 RES     
   16155 H6        -226.5344   -71.5876   132.2241 H6            1 RES     
   16156 H6        -224.6643   -71.8533   133.9826 H6            1 RES     
   16157 H6        -225.2855   -70.3446   134.7618 H6            1 RES     
   16158 H6        -226.8251   -72.9891   134.2990 H6            1 RES     
   16159 H6        -227.5782   -71.4817   134.9514 H6            1 RES     
   16160 H6        -225.2595   -73.0029   136.3064 H6            1 RES     
   16161 H6        -226.0792   -71.5083   136.9095 H6            1 RES     
   16162 H6        -228.2670   -72.7572   136.9960 H6            1 RES     
   16163 H6        -227.4204   -74.2517   136.4307 H6            1 RES     
   16164 H6        -227.0035   -73.5246   138.0280 H6            1 RES     
   16165 H6        -225.8642   -69.4811   128.5451 H6            1 RES     
   16166 H6        -224.2051   -69.5170   129.1985 H6            1 RES     
   16167 H6        -226.0511   -71.9905   129.0713 H6            1 RES     
   16168 H6        -224.9121   -71.3590   127.8613 H6            1 RES     
   16169 H6        -222.9988   -71.5211   129.5364 H6            1 RES     
   16170 H6        -224.0637   -72.5947   130.5244 H6            1 RES     
   16171 H6        -224.2784   -74.0892   128.3816 H6            1 RES     
   16172 H6        -223.2238   -72.9041   127.5620 H6            1 RES     
   16173 H6        -221.4262   -73.3617   129.3254 H6            1 RES     
   16174 H6        -222.4105   -74.7808   129.8252 H6            1 RES     
   16175 H6        -220.5572   -75.3606   128.2594 H6            1 RES     
   16176 H6        -221.1229   -74.1440   127.0661 H6            1 RES     
   16177 H6        -223.1834   -75.4743   126.6378 H6            1 RES     
   16178 H6        -222.6633   -76.6982   127.8660 H6            1 RES     
   16179 H6        -220.6099   -77.1836   126.5090 H6            1 RES     
   16180 H6        -221.1112   -75.9467   125.2914 H6            1 RES     
   16181 H6        -222.1068   -77.4280   125.5366 H6            1 RES     
   16182 H6        -224.4424   -64.6757   131.6059 H6            1 RES     
   16183 H6        -223.6811   -66.2575   131.5607 H6            1 RES     
   16184 H6        -222.7487   -64.9870   129.9371 H6            1 RES     
   16185 H6        -224.4314   -67.0481   128.3712 H6            1 RES     
   16186 H6        -222.9414   -67.3419   129.4121 H6            1 RES     
   16187 H6        -223.0358   -65.9653   126.7300 H6            1 RES     
   16188 H6        -221.5977   -66.1026   127.8677 H6            1 RES     
   16189 H6        -221.4225   -67.6661   126.1268 H6            1 RES     
   16190 H6        -221.7945   -68.6299   127.5970 H6            1 RES     
   16191 H6        -223.8864   -67.6949   125.5001 H6            1 RES     
   16192 H6        -224.1610   -68.9368   126.7663 H6            1 RES     
   16193 H6        -222.1964   -69.0503   124.3541 H6            1 RES     
   16194 H6        -223.8153   -69.8284   124.4115 H6            1 RES     
   16195 H6        -222.0144   -71.4701   124.7991 H6            1 RES     
   16196 H6        -223.1128   -71.2935   126.2098 H6            1 RES     
   16197 H6        -221.4523   -70.5674   126.2543 H6            1 RES     
   16198 H6        -225.1317   -64.3791   128.0794 H6            1 RES     
   16199 H6        -224.5419   -63.2776   129.3811 H6            1 RES     
   16200 H6        -222.3356   -63.1848   128.6898 H6            1 RES     
   16201 H6        -222.5458   -64.0960   127.2206 H6            1 RES     
   16202 H6        -222.1409   -61.8220   127.0073 H6            1 RES     
   16203 H6        -223.7130   -61.3035   127.6343 H6            1 RES     
   16204 H6        -224.7885   -62.1405   125.5218 H6            1 RES     
   16205 H6        -223.3514   -63.1594   125.1326 H6            1 RES     
   16206 H6        -221.8722   -61.2697   124.8728 H6            1 RES     
   16207 H6        -223.1784   -60.0836   125.2446 H6            1 RES     
   16208 H6        -224.3097   -60.6374   123.1189 H6            1 RES     
   16209 H6        -223.1290   -61.9680   122.7863 H6            1 RES     
   16210 H6        -221.2347   -60.3693   122.7428 H6            1 RES     
   16211 H6        -222.3339   -58.9931   123.1259 H6            1 RES     
   16212 H6        -223.5125   -59.3092   120.9586 H6            1 RES     
   16213 H6        -222.4381   -60.7190   120.5682 H6            1 RES     
   16214 H6        -221.7432   -59.0650   120.7285 H6            1 RES     
   16215 C0        -220.6444   -68.4815   142.3142 C0            1 RES     
   16216 C1        -221.4818   -67.7262   143.0869 C1            1 RES     
   16217 C1        -222.7517   -68.1776   143.1000 C1            1 RES     
   16218 C1        -222.9024   -69.2010   142.3186 C1            1 RES     
   16219 C1        -221.6288   -69.5304   141.6551 C1            1 RES     
   16220 C1        -222.1359   -69.2319   140.2522 C1            1 RES     
   16221 C1        -223.4885   -69.1762   140.0780 C1            1 RES     
   16222 S2        -224.4264   -69.6563   141.5681 S2            1 RES     
   16223 C1        -224.1518   -68.7011   138.7918 C1            1 RES     
   16224 C1        -223.4190   -68.6061   137.5721 C1            1 RES     
   16225 N3        -223.9987   -68.1583   136.4207 N3            1 RES     
   16226 C1        -225.2880   -67.7570   136.3579 C1            1 RES     
   16227 C1        -226.0604   -67.8001   137.5118 C1            1 RES     
   16228 C1        -225.4973   -68.2803   138.7333 C1            1 RES     
   16229 N3        -226.3500   -68.2627   139.7964 N3            1 RES     
   16230 S2        -227.7454   -67.6586   139.1389 S2            1 RES     
   16231 N3        -227.3537   -67.3970   137.5559 N3            1 RES     
   16232 S2        -223.8093   -67.1884   143.9393 S2            1 RES     
   16233 C1        -222.5793   -66.0970   144.3431 C1            1 RES     
   16234 C1        -221.3684   -66.5032   143.7692 C1            1 RES     
   16235 C0        -219.5344   -69.0926   143.2986 C0            1 RES     
   16236 C0        -219.1477   -69.2849   144.8504 C0            1 RES     
   16237 C0        -219.1798   -67.9994   145.7358 C0            1 RES     
   16238 C0        -220.1462   -68.1645   146.9239 C0            1 RES     
   16239 C0        -220.3747   -66.8765   147.7354 C0            1 RES     
   16240 C0        -221.2623   -67.1901   148.9549 C0            1 RES     
   16241 C0        -221.7082   -65.9323   149.7111 C0            1 RES     
   16242 C0        -222.5547   -66.3092   150.9292 C0            1 RES     
   16243 C0        -217.6774   -69.8983   144.8256 C0            1 RES     
   16244 C0        -216.7931   -70.2769   146.0550 C0            1 RES     
   16245 C0        -215.9771   -69.1356   146.7360 C0            1 RES     
   16246 C0        -214.6681   -69.6784   147.3876 C0            1 RES     
   16247 C0        -213.7698   -68.5756   147.9852 C0            1 RES     
   16248 C0        -212.2884   -68.9952   148.1714 C0            1 RES     
   16249 C0        -212.0517   -70.2139   149.0753 C0            1 RES     
   16250 C0        -210.5503   -70.5001   149.2153 C0            1 RES     
   16251 C0        -219.7466   -67.6105   141.3101 C0            1 RES     
   16252 C0        -218.4834   -68.1256   140.4015 C0            1 RES     
   16253 C0        -217.2911   -68.7036   141.2647 C0            1 RES     
   16254 C0        -215.9323   -68.9220   140.6069 C0            1 RES     
   16255 C0        -214.7936   -69.3295   141.5591 C0            1 RES     
   16256 C0        -214.9177   -70.7817   142.0651 C0            1 RES     
   16257 C0        -213.5724   -71.3418   142.5614 C0            1 RES     
   16258 C0        -213.0467   -70.6601   143.8128 C0            1 RES     
   16259 C0        -218.7488   -68.9521   139.0617 C0            1 RES     
   16260 C0        -217.6747   -68.6270   137.9551 C0            1 RES     
   16261 C0        -217.7510   -69.1402   136.4906 C0            1 RES     
   16262 C0        -217.1374   -70.5353   136.1401 C0            1 RES     
   16263 C0        -216.5595   -70.4729   134.6919 C0            1 RES     
   16264 C0        -215.8759   -71.7435   134.1421 C0            1 RES     
   16265 C0        -215.1507   -71.3979   132.8171 C0            1 RES     
   16266 C0        -214.4858   -72.6016   132.1509 C0            1 RES     
   16267 H4        -221.4687   -68.9872   139.4679 H4            1 RES     
   16268 H5        -222.3857   -68.9086   137.5213 H5            1 RES     
   16269 H4        -220.4726   -65.9066   143.8369 H4            1 RES     
   16270 H6        -219.3945   -70.1128   142.8816 H6            1 RES     
   16271 H6        -218.6938   -68.4434   143.1579 H6            1 RES     
   16272 H6        -219.8243   -70.0488   145.2927 H6            1 RES     
   16273 H6        -218.1806   -67.7422   146.1306 H6            1 RES     
   16274 H6        -219.4217   -67.1277   145.1389 H6            1 RES     
   16275 H6        -221.1380   -68.4918   146.5412 H6            1 RES     
   16276 H6        -219.7372   -68.9582   147.5875 H6            1 RES     
   16277 H6        -219.4104   -66.4475   148.0867 H6            1 RES     
   16278 H6        -220.8784   -66.1327   147.0792 H6            1 RES     
   16279 H6        -220.6954   -67.8571   149.6425 H6            1 RES     
   16280 H6        -222.1774   -67.7239   148.6173 H6            1 RES     
   16281 H6        -220.8268   -65.3479   150.0515 H6            1 RES     
   16282 H6        -222.3204   -65.2973   149.0336 H6            1 RES     
   16283 H6        -223.4417   -66.9036   150.6199 H6            1 RES     
   16284 H6        -221.9526   -66.9085   151.6456 H6            1 RES     
   16285 H6        -222.9084   -65.3920   151.4453 H6            1 RES     
   16286 H6        -217.7906   -70.8512   144.2634 H6            1 RES     
   16287 H6        -217.0184   -69.2443   144.2120 H6            1 RES     
   16288 H6        -217.3184   -70.9200   146.7895 H6            1 RES     
   16289 H6        -216.0136   -70.9157   145.5822 H6            1 RES     
   16290 H6        -215.6437   -68.4215   145.9494 H6            1 RES     
   16291 H6        -216.5975   -68.5881   147.4742 H6            1 RES     
   16292 H6        -214.8831   -70.4496   148.1571 H6            1 RES     
   16293 H6        -214.0808   -70.1563   146.5892 H6            1 RES     
   16294 H6        -213.7367   -67.7161   147.2803 H6            1 RES     
   16295 H6        -214.2077   -68.2180   148.9413 H6            1 RES     
   16296 H6        -211.7390   -68.1254   148.5951 H6            1 RES     
   16297 H6        -211.8514   -69.2135   147.1712 H6            1 RES     
   16298 H6        -212.5382   -71.1086   148.6326 H6            1 RES     
   16299 H6        -212.4763   -70.0281   150.0836 H6            1 RES     
   16300 H6        -210.0307   -69.6368   149.6848 H6            1 RES     
   16301 H6        -210.0907   -70.6951   148.2219 H6            1 RES     
   16302 H6        -210.3905   -71.3939   149.8551 H6            1 RES     
   16303 H6        -220.4452   -67.0871   140.6210 H6            1 RES     
   16304 H6        -219.3022   -66.7916   141.9210 H6            1 RES     
   16305 H6        -218.1239   -67.1446   140.0219 H6            1 RES     
   16306 H6        -217.5799   -69.6803   141.6969 H6            1 RES     
   16307 H6        -217.0685   -67.9466   142.0469 H6            1 RES     
   16308 H6        -215.9980   -69.7493   139.8785 H6            1 RES     
   16309 H6        -215.6398   -67.9629   140.1273 H6            1 RES     
   16310 H6        -213.8738   -69.2776   140.9389 H6            1 RES     
   16311 H6        -214.6795   -68.6084   142.3989 H6            1 RES     
   16312 H6        -215.2007   -71.4295   141.2086 H6            1 RES     
   16313 H6        -215.7108   -70.8732   142.8368 H6            1 RES     
   16314 H6        -212.8175   -71.2480   141.7507 H6            1 RES     
   16315 H6        -213.6971   -72.4229   142.7878 H6            1 RES     
   16316 H6        -212.0708   -71.1086   144.0980 H6            1 RES     
   16317 H6        -213.7682   -70.8406   144.6223 H6            1 RES     
   16318 H6        -212.9029   -69.5709   143.6603 H6            1 RES     
   16319 H6        -218.8746   -70.0375   139.2688 H6            1 RES     
   16320 H6        -219.6666   -68.5650   138.5902 H6            1 RES     
   16321 H6        -217.7353   -67.5216   137.8583 H6            1 RES     
   16322 H6        -216.6456   -68.8272   138.2336 H6            1 RES     
   16323 H6        -217.0704   -68.4145   135.9910 H6            1 RES     
   16324 H6        -218.7445   -68.9889   136.0201 H6            1 RES     
   16325 H6        -217.8925   -71.3411   136.2677 H6            1 RES     
   16326 H6        -216.2740   -70.7532   136.8060 H6            1 RES     
   16327 H6        -215.7779   -69.6796   134.7018 H6            1 RES     
   16328 H6        -217.3559   -70.1685   133.9792 H6            1 RES     
   16329 H6        -216.6392   -72.5331   133.9718 H6            1 RES     
   16330 H6        -215.1197   -72.1212   134.8642 H6            1 RES     
   16331 H6        -214.3588   -70.6432   133.0249 H6            1 RES     
   16332 H6        -215.8692   -70.9573   132.0927 H6            1 RES     
   16333 H6        -215.2478   -73.3543   131.8610 H6            1 RES     
   16334 H6        -213.7379   -73.0668   132.8262 H6            1 RES     
   16335 H6        -213.9604   -72.2654   131.2286 H6            1 RES     
   16336 C0        -222.9517   -57.3149   147.0862 C0            1 RES     
   16337 C1        -224.2890   -57.2485   146.8105 C1            1 RES     
   16338 C1        -225.0180   -58.1730   147.4667 C1            1 RES     
   16339 C1        -224.2670   -58.9618   148.1698 C1            1 RES     
   16340 C1        -222.8488   -58.5958   148.0095 C1            1 RES     
   16341 C1        -222.4533   -59.9077   147.3486 C1            1 RES     
   16342 C1        -223.3122   -60.9592   147.4889 C1            1 RES     
   16343 S2        -224.7039   -60.6060   148.6154 S2            1 RES     
   16344 C1        -223.1625   -62.2737   146.7343 C1            1 RES     
   16345 C1        -221.9378   -62.6242   146.0932 C1            1 RES     
   16346 N3        -221.8022   -63.7884   145.3943 N3            1 RES     
   16347 C1        -222.8127   -64.6735   145.2427 C1            1 RES     
   16348 C1        -224.0439   -64.3908   145.8209 C1            1 RES     
   16349 C1        -224.2220   -63.1921   146.5766 C1            1 RES     
   16350 N3        -225.4760   -63.0219   147.0828 N3            1 RES     
   16351 S2        -226.2709   -64.3783   146.5605 S2            1 RES     
   16352 N3        -225.1232   -65.2022   145.7050 N3            1 RES     
   16353 S2        -226.6362   -58.1820   147.0394 S2            1 RES     
   16354 C1        -226.4267   -56.9079   145.9438 C1            1 RES     
   16355 C1        -225.0789   -56.5311   145.8966 C1            1 RES     
   16356 C0        -222.5541   -55.9237   147.7798 C0            1 RES     
   16357 C0        -223.1642   -54.5757   148.4162 C0            1 RES     
   16358 C0        -224.2034   -53.8062   147.5412 C0            1 RES     
   16359 C0        -225.5461   -53.6485   148.2795 C0            1 RES     
   16360 C0        -226.6781   -53.0670   147.4134 C0            1 RES     
   16361 C0        -227.9302   -52.8510   148.2846 C0            1 RES     
   16362 C0        -229.1691   -52.4630   147.4678 C0            1 RES     
   16363 C0        -230.3683   -52.2275   148.3891 C0            1 RES     
   16364 C0        -221.8954   -53.6546   148.6995 C0            1 RES     
   16365 C0        -221.8914   -52.2157   149.3048 C0            1 RES     
   16366 C0        -222.1594   -51.0240   148.3352 C0            1 RES     
   16367 C0        -221.4440   -49.7237   148.8150 C0            1 RES     
   16368 C0        -221.5893   -48.5395   147.8369 C0            1 RES     
   16369 C0        -220.5135   -47.4361   148.0119 C0            1 RES     
   16370 C0        -220.4528   -46.7816   149.3998 C0            1 RES     
   16371 C0        -219.3839   -45.6807   149.4324 C0            1 RES     
   16372 C0        -222.0300   -57.3006   145.7734 C0            1 RES     
   16373 C0        -220.4004   -57.1397   145.7022 C0            1 RES     
   16374 C0        -219.8832   -55.7738   146.3085 C0            1 RES     
   16375 C0        -218.4500   -55.3309   146.0321 C0            1 RES     
   16376 C0        -218.0877   -53.9173   146.5219 C0            1 RES     
   16377 C0        -217.9491   -53.8247   148.0556 C0            1 RES     
   16378 C0        -217.1067   -52.6121   148.4915 C0            1 RES     
   16379 C0        -217.7577   -51.2724   148.1943 C0            1 RES     
   16380 C0        -219.4598   -58.3806   146.0542 C0            1 RES     
   16381 C0        -218.1508   -58.3860   145.1764 C0            1 RES     
   16382 C0        -217.1173   -59.5458   145.1620 C0            1 RES     
   16383 C0        -215.9592   -59.5464   146.2130 C0            1 RES     
   16384 C0        -214.6907   -60.1706   145.5524 C0            1 RES     
   16385 C0        -213.4074   -60.2492   146.4075 C0            1 RES     
   16386 C0        -212.2160   -60.6484   145.5010 C0            1 RES     
   16387 C0        -210.8991   -60.8144   146.2580 C0            1 RES     
   16388 H4        -221.5965   -59.9747   146.7308 H4            1 RES     
   16389 H5        -221.0731   -61.9844   146.1625 H5            1 RES     
   16390 H4        -224.7145   -55.7893   145.2038 H4            1 RES     
   16391 H6        -221.8245   -56.2519   148.5507 H6            1 RES     
   16392 H6        -222.1199   -55.3619   146.9775 H6            1 RES     
   16393 H6        -223.6264   -54.8238   149.3969 H6            1 RES     
   16394 H6        -223.8419   -52.8026   147.2539 H6            1 RES     
   16395 H6        -224.3280   -54.2892   146.5790 H6            1 RES     
   16396 H6        -225.8838   -54.6471   148.6342 H6            1 RES     
   16397 H6        -225.3743   -52.9929   149.1617 H6            1 RES     
   16398 H6        -226.3778   -52.0970   146.9594 H6            1 RES     
   16399 H6        -226.9021   -53.7891   146.5973 H6            1 RES     
   16400 H6        -227.7096   -52.0534   149.0290 H6            1 RES     
   16401 H6        -228.1659   -53.7905   148.8307 H6            1 RES     
   16402 H6        -228.9774   -51.5384   146.8823 H6            1 RES     
   16403 H6        -229.4157   -53.2887   146.7647 H6            1 RES     
   16404 H6        -230.5794   -53.1349   148.9955 H6            1 RES     
   16405 H6        -230.1657   -51.3765   149.0745 H6            1 RES     
   16406 H6        -231.2701   -51.9894   147.7867 H6            1 RES     
   16407 H6        -221.2785   -54.2525   149.4058 H6            1 RES     
   16408 H6        -221.2999   -53.5544   147.7647 H6            1 RES     
   16409 H6        -222.4715   -52.1361   150.2462 H6            1 RES     
   16410 H6        -220.8214   -52.0940   149.5866 H6            1 RES     
   16411 H6        -221.7077   -51.2644   147.3462 H6            1 RES     
   16412 H6        -223.2474   -50.8583   148.1988 H6            1 RES     
   16413 H6        -221.7816   -49.4209   149.8286 H6            1 RES     
   16414 H6        -220.3680   -49.9465   148.8727 H6            1 RES     
   16415 H6        -221.4510   -48.9108   146.7978 H6            1 RES     
   16416 H6        -222.6132   -48.1163   147.9161 H6            1 RES     
   16417 H6        -220.7100   -46.6459   147.2538 H6            1 RES     
   16418 H6        -219.5145   -47.8739   147.7894 H6            1 RES     
   16419 H6        -220.1915   -47.5451   150.1627 H6            1 RES     
   16420 H6        -221.4361   -46.3337   149.6527 H6            1 RES     
   16421 H6        -219.6269   -44.8792   148.7015 H6            1 RES     
   16422 H6        -218.3819   -46.0950   149.1866 H6            1 RES     
   16423 H6        -219.3348   -45.2267   150.4449 H6            1 RES     
   16424 H6        -222.2887   -58.2084   145.1853 H6            1 RES     
   16425 H6        -222.3959   -56.4560   145.1458 H6            1 RES     
   16426 H6        -220.2783   -57.0387   144.6020 H6            1 RES     
   16427 H6        -219.9898   -55.7879   147.4097 H6            1 RES     
   16428 H6        -220.4863   -54.9681   145.8377 H6            1 RES     
   16429 H6        -217.7444   -55.9987   146.5570 H6            1 RES     
   16430 H6        -218.3053   -55.3502   144.9302 H6            1 RES     
   16431 H6        -217.0839   -53.7170   146.0908 H6            1 RES     
   16432 H6        -218.7886   -53.1500   146.1239 H6            1 RES     
   16433 H6        -217.3830   -54.7113   148.4117 H6            1 RES     
   16434 H6        -218.9426   -53.8344   148.5514 H6            1 RES     
   16435 H6        -216.1168   -52.6562   147.9874 H6            1 RES     
   16436 H6        -216.9339   -52.6725   149.5879 H6            1 RES     
   16437 H6        -217.0853   -50.4513   148.5237 H6            1 RES     
   16438 H6        -218.6916   -51.2170   148.7717 H6            1 RES     
   16439 H6        -217.9654   -51.1452   147.1122 H6            1 RES     
   16440 H6        -219.2745   -58.4561   147.1481 H6            1 RES     
   16441 H6        -219.9549   -59.3018   145.7067 H6            1 RES     
   16442 H6        -218.5415   -58.3582   144.1364 H6            1 RES     
   16443 H6        -217.5286   -57.5018   145.2650 H6            1 RES     
   16444 H6        -216.6030   -59.3405   144.1961 H6            1 RES     
   16445 H6        -217.5789   -60.5482   145.0462 H6            1 RES     
   16446 H6        -216.2679   -60.0781   147.1391 H6            1 RES     
   16447 H6        -215.6837   -58.5031   146.4812 H6            1 RES     
   16448 H6        -214.4431   -59.5243   144.6799 H6            1 RES     
   16449 H6        -214.9226   -61.1902   145.1760 H6            1 RES     
   16450 H6        -213.5453   -60.9967   147.2183 H6            1 RES     
   16451 H6        -213.1825   -59.2599   146.8621 H6            1 RES     
   16452 H6        -212.0683   -59.8589   144.7298 H6            1 RES     
   16453 H6        -212.4365   -61.6055   144.9806 H6            1 RES     
   16454 H6        -210.9763   -61.6416   146.9937 H6            1 RES     
   16455 H6        -210.6189   -59.8752   146.7788 H6            1 RES     
   16456 H6        -210.0906   -61.0661   145.5351 H6            1 RES     
   16457 C0        -231.6066   -54.1112   138.8633 C0            1 RES     
   16458 C1        -232.3966   -55.2230   138.9562 C1            1 RES     
   16459 C1        -232.9673   -55.3752   140.1677 C1            1 RES     
   16460 C1        -232.5827   -54.4545   140.9953 C1            1 RES     
   16461 C1        -231.6284   -53.5432   140.3399 C1            1 RES     
   16462 C1        -230.4632   -53.9050   141.2486 C1            1 RES     
   16463 C1        -230.7616   -54.5302   142.4246 C1            1 RES     
   16464 S2        -232.5548   -54.6451   142.7435 S2            1 RES     
   16465 C1        -229.7097   -55.1289   143.3493 C1            1 RES     
   16466 C1        -228.3317   -54.7833   143.2251 C1            1 RES     
   16467 N3        -227.3793   -55.3332   144.0330 N3            1 RES     
   16468 C1        -227.6661   -56.2502   144.9840 C1            1 RES     
   16469 C1        -228.9851   -56.6535   145.1502 C1            1 RES     
   16470 C1        -230.0148   -56.0882   144.3380 C1            1 RES     
   16471 N3        -231.2641   -56.5726   144.5874 N3            1 RES     
   16472 S2        -230.9992   -57.6636   145.8056 S2            1 RES     
   16473 N3        -229.3691   -57.5833   146.0584 N3            1 RES     
   16474 S2        -233.8329   -56.7984   140.3303 S2            1 RES     
   16475 C1        -233.4847   -57.2742   138.7429 C1            1 RES     
   16476 C1        -232.6530   -56.3296   138.1293 C1            1 RES     
   16477 C0        -232.2669   -53.1683   137.7455 C0            1 RES     
   16478 C0        -233.5805   -52.9676   136.8351 C0            1 RES     
   16479 C0        -234.0540   -54.2122   136.0199 C0            1 RES     
   16480 C0        -235.5030   -54.5942   136.3767 C0            1 RES     
   16481 C0        -235.9775   -55.9200   135.7550 C0            1 RES     
   16482 C0        -237.4662   -56.1376   136.0869 C0            1 RES     
   16483 C0        -237.9743   -57.5264   135.6801 C0            1 RES     
   16484 C0        -239.4638   -57.6692   136.0013 C0            1 RES     
   16485 C0        -233.2071   -51.7740   135.8479 C0            1 RES     
   16486 C0        -234.1060   -51.1598   134.7291 C0            1 RES     
   16487 C0        -234.1383   -51.8862   133.3494 C0            1 RES     
   16488 C0        -234.4120   -50.8873   132.1831 C0            1 RES     
   16489 C0        -234.3506   -51.5358   130.7845 C0            1 RES     
   16490 C0        -234.1130   -50.5297   129.6284 C0            1 RES     
   16491 C0        -235.1626   -49.4174   129.4893 C0            1 RES     
   16492 C0        -234.8416   -48.5179   128.2879 C0            1 RES     
   16493 C0        -230.1631   -54.4076   138.2295 C0            1 RES     
   16494 C0        -229.0402   -53.3125   137.7542 C0            1 RES     
   16495 C0        -229.5540   -52.3522   136.6076 C0            1 RES     
   16496 C0        -228.5464   -51.5035   135.8388 C0            1 RES     
   16497 C0        -229.1147   -50.7273   134.6371 C0            1 RES     
   16498 C0        -229.9921   -49.5277   135.0511 C0            1 RES     
   16499 C0        -230.1178   -48.4835   133.9270 C0            1 RES     
   16500 C0        -230.8845   -48.9770   132.7123 C0            1 RES     
   16501 C0        -228.1410   -52.5676   138.8429 C0            1 RES     
   16502 C0        -226.6863   -52.2891   138.3042 C0            1 RES     
   16503 C0        -225.5275   -51.7307   139.1755 C0            1 RES     
   16504 C0        -225.3623   -50.1824   139.3207 C0            1 RES     
   16505 C0        -223.8408   -49.8547   139.4339 C0            1 RES     
   16506 C0        -223.4393   -48.3692   139.5605 C0            1 RES     
   16507 C0        -221.9038   -48.2417   139.3966 C0            1 RES     
   16508 C0        -221.3865   -46.8137   139.5640 C0            1 RES     
   16509 H4        -229.4610   -53.7615   140.9396 H4            1 RES     
   16510 H5        -228.0059   -54.0565   142.4989 H5            1 RES     
   16511 H4        -232.2472   -56.4782   137.1413 H4            1 RES     
   16512 H6        -232.1086   -52.1565   138.1761 H6            1 RES     
   16513 H6        -231.6789   -53.3693   136.8728 H6            1 RES     
   16514 H6        -234.4131   -52.6197   137.4852 H6            1 RES     
   16515 H6        -233.9954   -54.0413   134.9300 H6            1 RES     
   16516 H6        -233.3732   -55.0440   136.1585 H6            1 RES     
   16517 H6        -235.5882   -54.7000   137.4807 H6            1 RES     
   16518 H6        -236.1655   -53.7651   136.0430 H6            1 RES     
   16519 H6        -235.8471   -55.9143   134.6504 H6            1 RES     
   16520 H6        -235.3676   -56.7465   136.1823 H6            1 RES     
   16521 H6        -238.0624   -55.3550   135.5660 H6            1 RES     
   16522 H6        -237.6192   -56.0292   137.1829 H6            1 RES     
   16523 H6        -237.8223   -57.6950   134.5925 H6            1 RES     
   16524 H6        -237.4112   -58.3009   136.2458 H6            1 RES     
   16525 H6        -239.6484   -57.4969   137.0838 H6            1 RES     
   16526 H6        -240.0562   -56.9345   135.4144 H6            1 RES     
   16527 H6        -239.8125   -58.6912   135.7433 H6            1 RES     
   16528 H6        -232.9885   -50.9198   136.5258 H6            1 RES     
   16529 H6        -232.2550   -52.0157   135.3250 H6            1 RES     
   16530 H6        -235.1177   -50.8803   135.0858 H6            1 RES     
   16531 H6        -233.5758   -50.2048   134.5146 H6            1 RES     
   16532 H6        -233.1278   -52.3085   133.1484 H6            1 RES     
   16533 H6        -234.8761   -52.7141   133.3522 H6            1 RES     
   16534 H6        -235.3808   -50.3607   132.3139 H6            1 RES     
   16535 H6        -233.6133   -50.1309   132.2081 H6            1 RES     
   16536 H6        -233.4801   -52.2267   130.7452 H6            1 RES     
   16537 H6        -235.2707   -52.1336   130.6121 H6            1 RES     
   16538 H6        -234.0770   -51.1064   128.6776 H6            1 RES     
   16539 H6        -233.1171   -50.0530   129.7699 H6            1 RES     
   16540 H6        -235.1662   -48.7893   130.4051 H6            1 RES     
   16541 H6        -236.1699   -49.8605   129.3460 H6            1 RES     
   16542 H6        -234.8590   -49.1058   127.3447 H6            1 RES     
   16543 H6        -233.8381   -48.0526   128.3993 H6            1 RES     
   16544 H6        -235.5955   -47.7061   128.2072 H6            1 RES     
   16545 H6        -229.6487   -55.1189   138.9124 H6            1 RES     
   16546 H6        -230.3455   -55.0014   137.3048 H6            1 RES     
   16547 H6        -228.3176   -53.9989   137.2619 H6            1 RES     
   16548 H6        -230.2983   -51.6434   137.0173 H6            1 RES     
   16549 H6        -229.9840   -53.0031   135.8164 H6            1 RES     
   16550 H6        -228.1288   -50.7260   136.5025 H6            1 RES     
   16551 H6        -227.7627   -52.1906   135.4525 H6            1 RES     
   16552 H6        -228.2229   -50.3158   134.1187 H6            1 RES     
   16553 H6        -229.6435   -51.3987   133.9245 H6            1 RES     
   16554 H6        -229.4878   -48.9942   135.8844 H6            1 RES     
   16555 H6        -230.9867   -49.8623   135.4143 H6            1 RES     
   16556 H6        -229.1008   -48.1642   133.6111 H6            1 RES     
   16557 H6        -230.6468   -47.5909   134.3258 H6            1 RES     
   16558 H6        -230.9193   -48.1749   131.9439 H6            1 RES     
   16559 H6        -231.9114   -49.2039   133.0324 H6            1 RES     
   16560 H6        -230.4133   -49.8751   132.2633 H6            1 RES     
   16561 H6        -228.6542   -51.6700   139.2524 H6            1 RES     
   16562 H6        -227.9343   -53.2724   139.6644 H6            1 RES     
   16563 H6        -226.3320   -53.2961   137.9952 H6            1 RES     
   16564 H6        -226.6318   -51.6854   137.4045 H6            1 RES     
   16565 H6        -224.6519   -52.0376   138.5603 H6            1 RES     
   16566 H6        -225.4094   -52.2577   140.1449 H6            1 RES     
   16567 H6        -225.9497   -49.8028   140.1848 H6            1 RES     
   16568 H6        -225.7189   -49.6703   138.4004 H6            1 RES     
   16569 H6        -223.3713   -50.2240   138.4939 H6            1 RES     
   16570 H6        -223.3962   -50.4107   140.2872 H6            1 RES     
   16571 H6        -223.7570   -47.9807   140.5522 H6            1 RES     
   16572 H6        -223.9255   -47.7661   138.7632 H6            1 RES     
   16573 H6        -221.6190   -48.5899   138.3780 H6            1 RES     
   16574 H6        -221.3860   -48.8845   140.1410 H6            1 RES     
   16575 H6        -221.5863   -46.4469   140.5920 H6            1 RES     
   16576 H6        -221.8562   -46.1316   138.8251 H6            1 RES     
   16577 H6        -220.2855   -46.8016   139.3982 H6            1 RES     
   16578 C0        -233.7955   -65.5441   134.7057 C0            1 RES     
   16579 C1        -233.9946   -66.1630   135.9083 C1            1 RES     
   16580 C1        -235.0799   -65.7136   136.5691 C1            1 RES     
   16581 C1        -235.6579   -64.7431   135.9330 C1            1 RES     
   16582 C1        -234.9254   -64.4364   134.6920 C1            1 RES     
   16583 C1        -234.5346   -63.0298   135.1198 C1            1 RES     
   16584 C1        -235.2336   -62.4768   136.1536 C1            1 RES     
   16585 S2        -236.6397   -63.5029   136.7018 S2            1 RES     
   16586 C1        -234.8445   -61.1668   136.8261 C1            1 RES     
   16587 C1        -233.9329   -60.2600   136.2094 C1            1 RES     
   16588 N3        -233.5598   -59.0957   136.8155 N3            1 RES     
   16589 C1        -234.0050   -58.7314   138.0388 C1            1 RES     
   16590 C1        -234.8799   -59.5748   138.7123 C1            1 RES     
   16591 C1        -235.3100   -60.7937   138.1048 C1            1 RES     
   16592 N3        -236.1572   -61.5397   138.8684 N3            1 RES     
   16593 S2        -236.3166   -60.6260   140.2411 S2            1 RES     
   16594 N3        -235.3620   -59.3098   139.9508 N3            1 RES     
   16595 S2        -235.2595   -66.3741   138.0965 S2            1 RES     
   16596 C1        -233.8678   -67.3236   137.9267 C1            1 RES     
   16597 C1        -233.2588   -67.0676   136.6921 C1            1 RES     
   16598 C0        -233.9194   -66.6781   133.5773 C0            1 RES     
   16599 C0        -234.3533   -68.2087   133.3248 C0            1 RES     
   16600 C0        -233.7256   -69.2722   134.2800 C0            1 RES     
   16601 C0        -234.8160   -70.0669   135.0232 C0            1 RES     
   16602 C0        -234.2776   -71.0036   136.1197 C0            1 RES     
   16603 C0        -235.4410   -71.8229   136.7102 C0            1 RES     
   16604 C0        -235.0346   -72.6376   137.9445 C0            1 RES     
   16605 C0        -236.2197   -73.4558   138.4627 C0            1 RES     
   16606 C0        -233.9275   -68.5041   131.8181 C0            1 RES     
   16607 C0        -234.0962   -69.8448   131.0365 C0            1 RES     
   16608 C0        -233.0053   -70.9407   131.2393 C0            1 RES     
   16609 C0        -232.8499   -71.8350   129.9709 C0            1 RES     
   16610 C0        -231.7107   -72.8699   130.0781 C0            1 RES     
   16611 C0        -231.2069   -73.4030   128.7115 C0            1 RES     
   16612 C0        -232.2653   -74.0877   127.8345 C0            1 RES     
   16613 C0        -231.6362   -74.6088   126.5351 C0            1 RES     
   16614 C0        -232.2891   -65.0354   134.4936 C0            1 RES     
   16615 C0        -231.6168   -64.4609   133.1136 C0            1 RES     
   16616 C0        -231.6272   -65.5121   131.9321 C0            1 RES     
   16617 C0        -230.7648   -65.2571   130.7001 C0            1 RES     
   16618 C0        -230.7115   -66.4081   129.6794 C0            1 RES     
   16619 C0        -232.0207   -66.5692   128.8793 C0            1 RES     
   16620 C0        -231.8046   -67.3256   127.5560 C0            1 RES     
   16621 C0        -231.4138   -68.7821   127.7372 C0            1 RES     
   16622 C0        -231.9305   -62.9712   132.6331 C0            1 RES     
   16623 C0        -230.6865   -62.3150   131.9220 C0            1 RES     
   16624 C0        -230.6167   -60.8241   131.4907 C0            1 RES     
   16625 C0        -231.1612   -60.4125   130.0836 C0            1 RES     
   16626 C0        -230.2882   -59.2399   129.5379 C0            1 RES     
   16627 C0        -230.6330   -58.6861   128.1384 C0            1 RES     
   16628 C0        -229.5066   -57.7262   127.6797 C0            1 RES     
   16629 C0        -229.7742   -57.0707   126.3256 C0            1 RES     
   16630 H4        -233.6979   -62.5396   134.6957 H4            1 RES     
   16631 H5        -233.5281   -60.4609   135.2309 H5            1 RES     
   16632 H4        -232.3148   -67.5095   136.4153 H4            1 RES     
   16633 H6        -234.4459   -66.1353   132.7633 H6            1 RES     
   16634 H6        -232.8995   -66.9185   133.3544 H6            1 RES     
   16635 H6        -235.4619   -68.2773   133.3815 H6            1 RES     
   16636 H6        -233.0796   -69.9864   133.7387 H6            1 RES     
   16637 H6        -233.0281   -68.8075   134.9671 H6            1 RES     
   16638 H6        -235.5132   -69.3529   135.5144 H6            1 RES     
   16639 H6        -235.3801   -70.6584   134.2685 H6            1 RES     
   16640 H6        -233.5114   -71.6994   135.7122 H6            1 RES     
   16641 H6        -233.8086   -70.3816   136.9139 H6            1 RES     
   16642 H6        -235.8270   -72.5076   135.9220 H6            1 RES     
   16643 H6        -236.2597   -71.1345   137.0140 H6            1 RES     
   16644 H6        -234.1996   -73.3283   137.6994 H6            1 RES     
   16645 H6        -234.7023   -71.9429   138.7469 H6            1 RES     
   16646 H6        -237.0758   -72.7908   138.7089 H6            1 RES     
   16647 H6        -236.5449   -74.1908   137.6952 H6            1 RES     
   16648 H6        -235.9284   -74.0084   139.3805 H6            1 RES     
   16649 H6        -234.5052   -67.7634   131.2229 H6            1 RES     
   16650 H6        -232.8525   -68.2490   131.6850 H6            1 RES     
   16651 H6        -235.1249   -70.2547   131.0891 H6            1 RES     
   16652 H6        -233.9465   -69.5116   129.9850 H6            1 RES     
   16653 H6        -232.0202   -70.4387   131.3717 H6            1 RES     
   16654 H6        -233.2173   -71.5521   132.1398 H6            1 RES     
   16655 H6        -233.8013   -72.3452   129.7106 H6            1 RES     
   16656 H6        -232.5861   -71.1707   129.1344 H6            1 RES     
   16657 H6        -230.8235   -72.3831   130.5393 H6            1 RES     
   16658 H6        -232.0274   -73.7032   130.7406 H6            1 RES     
   16659 H6        -230.3863   -74.1275   128.9105 H6            1 RES     
   16660 H6        -230.7735   -72.5546   128.1359 H6            1 RES     
   16661 H6        -233.0607   -73.3593   127.5701 H6            1 RES     
   16662 H6        -232.7179   -74.9411   128.3806 H6            1 RES     
   16663 H6        -230.8534   -75.3661   126.7569 H6            1 RES     
   16664 H6        -231.1748   -73.7779   125.9582 H6            1 RES     
   16665 H6        -232.4129   -75.0852   125.8998 H6            1 RES     
   16666 H6        -232.0859   -64.2830   135.2869 H6            1 RES     
   16667 H6        -231.6307   -65.8944   134.7579 H6            1 RES     
   16668 H6        -230.5570   -64.3984   133.4431 H6            1 RES     
   16669 H6        -232.6598   -65.6456   131.5579 H6            1 RES     
   16670 H6        -231.2026   -66.4541   132.3407 H6            1 RES     
   16671 H6        -231.1665   -64.3986   130.1336 H6            1 RES     
   16672 H6        -229.7270   -65.0769   131.0552 H6            1 RES     
   16673 H6        -229.9223   -66.1097   128.9573 H6            1 RES     
   16674 H6        -230.3966   -67.3651   130.1522 H6            1 RES     
   16675 H6        -232.3759   -65.5605   128.5795 H6            1 RES     
   16676 H6        -232.8150   -67.0394   129.4965 H6            1 RES     
   16677 H6        -231.0180   -66.8080   126.9649 H6            1 RES     
   16678 H6        -232.7478   -67.2952   126.9688 H6            1 RES     
   16679 H6        -231.2628   -69.2528   126.7420 H6            1 RES     
   16680 H6        -232.2439   -69.2920   128.2466 H6            1 RES     
   16681 H6        -230.4781   -68.8889   128.3232 H6            1 RES     
   16682 H6        -232.8711   -62.9216   132.0419 H6            1 RES     
   16683 H6        -232.0297   -62.3317   133.5251 H6            1 RES     
   16684 H6        -229.8782   -62.4165   132.6779 H6            1 RES     
   16685 H6        -230.3196   -62.8424   131.0479 H6            1 RES     
   16686 H6        -229.5145   -60.6958   131.4001 H6            1 RES     
   16687 H6        -230.9341   -60.1182   132.2860 H6            1 RES     
   16688 H6        -232.2413   -60.1554   130.1389 H6            1 RES     
   16689 H6        -231.0351   -61.2500   129.3632 H6            1 RES     
   16690 H6        -229.2478   -59.6311   129.4691 H6            1 RES     
   16691 H6        -230.2955   -58.3947   130.2595 H6            1 RES     
   16692 H6        -231.6061   -58.1507   128.1791 H6            1 RES     
   16693 H6        -230.7064   -59.5142   127.4004 H6            1 RES     
   16694 H6        -228.5548   -58.2985   127.5988 H6            1 RES     
   16695 H6        -229.3640   -56.9190   128.4304 H6            1 RES     
   16696 H6        -230.6793   -56.4306   126.3767 H6            1 RES     
   16697 H6        -229.9010   -57.8358   125.5317 H6            1 RES     
   16698 H6        -228.9077   -56.4267   126.0532 H6            1 RES     
   16699 C0        -228.5608   -71.4496   144.2195 C0            1 RES     
   16700 C1        -229.2089   -70.8083   145.2381 C1            1 RES     
   16701 C1        -230.5381   -71.0311   145.2520 C1            1 RES     
   16702 C1        -230.9099   -71.7617   144.2478 C1            1 RES     
   16703 C1        -229.7504   -72.1011   143.4044 C1            1 RES     
   16704 C1        -230.2583   -71.3502   142.1827 C1            1 RES     
   16705 C1        -231.5843   -71.0275   142.1571 C1            1 RES     
   16706 S2        -232.5245   -71.7371   143.5510 S2            1 RES     
   16707 C1        -232.2077   -70.1157   141.1084 C1            1 RES     
   16708 C1        -231.5270   -69.8115   139.8927 C1            1 RES     
   16709 N3        -232.0672   -68.9763   138.9585 N3            1 RES     
   16710 C1        -233.2625   -68.3670   139.1245 C1            1 RES     
   16711 C1        -233.9756   -68.5975   140.2943 C1            1 RES     
   16712 C1        -233.4544   -69.4800   141.2889 C1            1 RES     
   16713 N3        -234.2394   -69.6149   142.3948 N3            1 RES     
   16714 S2        -235.5291   -68.6330   142.0527 S2            1 RES     
   16715 N3        -235.1695   -68.0154   140.5637 N3            1 RES     
   16716 S2        -231.3563   -70.1504   146.4165 S2            1 RES     
   16717 C1        -229.9296   -69.4289   146.9743 C1            1 RES     
   16718 C1        -228.8416   -69.8553   146.2029 C1            1 RES     
   16719 C0        -227.5376   -72.4809   144.9006 C0            1 RES     
   16720 C0        -227.1217   -73.1522   146.3045 C0            1 RES     
   16721 C0        -226.8764   -72.1716   147.4945 C0            1 RES     
   16722 C0        -227.8008   -72.4953   148.6834 C0            1 RES     
   16723 C0        -227.7513   -71.4599   149.8214 C0            1 RES     
   16724 C0        -228.6242   -71.9457   150.9943 C0            1 RES     
   16725 C0        -228.7963   -70.8881   152.0917 C0            1 RES     
   16726 C0        -229.6404   -71.4403   153.2428 C0            1 RES     
   16727 C0        -225.7916   -73.9680   145.9819 C0            1 RES     
   16728 C0        -224.9361   -74.8092   146.9805 C0            1 RES     
   16729 C0        -223.8939   -74.0485   147.8566 C0            1 RES     
   16730 C0        -222.6781   -74.9565   148.2173 C0            1 RES     
   16731 C0        -221.5661   -74.2229   148.9955 C0            1 RES     
   16732 C0        -220.1798   -74.9148   148.9252 C0            1 RES     
   16733 C0        -220.1293   -76.3563   149.4522 C0            1 RES     
   16734 C0        -218.7011   -76.9124   149.3705 C0            1 RES     
   16735 C0        -227.5658   -70.4963   143.3985 C0            1 RES     
   16736 C0        -226.4619   -70.9426   142.2721 C0            1 RES     
   16737 C0        -225.3573   -71.9228   142.8378 C0            1 RES     
   16738 C0        -224.0935   -72.1725   142.0210 C0            1 RES     
   16739 C0        -223.0062   -73.0068   142.7219 C0            1 RES     
   16740 C0        -223.3713   -74.5011   142.8395 C0            1 RES     
   16741 C0        -222.1302   -75.3889   143.0431 C0            1 RES     
   16742 C0        -221.4311   -75.1725   144.3741 C0            1 RES     
   16743 C0        -226.9359   -71.3148   140.7938 C0            1 RES     
   16744 C0        -225.8727   -70.8796   139.7149 C0            1 RES     
   16745 C0        -226.1094   -70.9517   138.1811 C0            1 RES     
   16746 C0        -225.7791   -72.2782   137.4215 C0            1 RES     
   16747 C0        -225.2670   -71.9168   135.9925 C0            1 RES     
   16748 C0        -224.8543   -73.0822   135.0675 C0            1 RES     
   16749 C0        -224.1399   -72.5105   133.8170 C0            1 RES     
   16750 C0        -223.7386   -73.5774   132.7995 C0            1 RES     
   16751 H4        -229.5944   -71.0128   141.4306 H4            1 RES     
   16752 H5        -230.5703   -70.2539   139.6676 H5            1 RES     
   16753 H4        -227.8494   -69.4556   146.3398 H4            1 RES     
   16754 H6        -227.6067   -73.3562   144.2199 H6            1 RES     
   16755 H6        -226.5996   -71.9652   144.8563 H6            1 RES     
   16756 H6        -227.9058   -73.8862   146.5931 H6            1 RES     
   16757 H6        -225.8298   -72.2003   147.8470 H6            1 RES     
   16758 H6        -226.9815   -71.1423   147.1720 H6            1 RES     
   16759 H6        -228.8524   -72.5376   148.3234 H6            1 RES     
   16760 H6        -227.5143   -73.4965   149.0746 H6            1 RES     
   16761 H6        -226.7096   -71.3080   150.1805 H6            1 RES     
   16762 H6        -228.1397   -70.4924   149.4332 H6            1 RES     
   16763 H6        -228.1582   -72.8595   151.4268 H6            1 RES     
   16764 H6        -229.6363   -72.2087   150.6163 H6            1 RES     
   16765 H6        -227.8079   -70.5724   152.4888 H6            1 RES     
   16766 H6        -229.3122   -70.0001   151.6647 H6            1 RES     
   16767 H6        -230.6347   -71.7730   152.8736 H6            1 RES     
   16768 H6        -229.1261   -72.3036   153.7174 H6            1 RES     
   16769 H6        -229.7957   -70.6547   154.0118 H6            1 RES     
   16770 H6        -226.1036   -74.6981   145.2031 H6            1 RES     
   16771 H6        -225.0529   -73.2882   145.5016 H6            1 RES     
   16772 H6        -225.5360   -75.5337   147.5671 H6            1 RES     
   16773 H6        -224.3097   -75.4128   146.2858 H6            1 RES     
   16774 H6        -223.4718   -73.2108   147.2566 H6            1 RES     
   16775 H6        -224.3686   -73.6303   148.7673 H6            1 RES     
   16776 H6        -222.9952   -75.8630   148.7748 H6            1 RES     
   16777 H6        -222.2259   -75.2867   147.2701 H6            1 RES     
   16778 H6        -221.4084   -73.2206   148.5403 H6            1 RES     
   16779 H6        -221.8863   -74.0743   150.0486 H6            1 RES     
   16780 H6        -219.4612   -74.2971   149.5081 H6            1 RES     
   16781 H6        -219.8370   -74.9191   147.8662 H6            1 RES     
   16782 H6        -220.7917   -77.0028   148.8386 H6            1 RES     
   16783 H6        -220.4657   -76.3871   150.5093 H6            1 RES     
   16784 H6        -218.0108   -76.3085   149.9985 H6            1 RES     
   16785 H6        -218.3315   -76.9003   148.3221 H6            1 RES     
   16786 H6        -218.6788   -77.9610   149.7362 H6            1 RES     
   16787 H6        -228.1875   -69.6967   142.9392 H6            1 RES     
   16788 H6        -226.9510   -69.9609   144.1578 H6            1 RES     
   16789 H6        -225.9464   -69.9680   142.1304 H6            1 RES     
   16790 H6        -225.8003   -72.9194   143.0245 H6            1 RES     
   16791 H6        -224.9637   -71.4567   143.7663 H6            1 RES     
   16792 H6        -224.3435   -72.7458   141.1110 H6            1 RES     
   16793 H6        -223.6524   -71.1802   141.7838 H6            1 RES     
   16794 H6        -222.1221   -72.9385   142.0532 H6            1 RES     
   16795 H6        -222.7231   -72.5725   143.7066 H6            1 RES     
   16796 H6        -223.8076   -74.8336   141.8738 H6            1 RES     
   16797 H6        -224.1312   -74.6692   143.6315 H6            1 RES     
   16798 H6        -221.4091   -75.2017   142.2180 H6            1 RES     
   16799 H6        -222.4406   -76.4549   142.9893 H6            1 RES     
   16800 H6        -220.5420   -75.8359   144.4389 H6            1 RES     
   16801 H6        -222.1354   -75.4471   145.1722 H6            1 RES     
   16802 H6        -221.0970   -74.1222   144.4991 H6            1 RES     
   16803 H6        -227.2491   -72.3793   140.7205 H6            1 RES     
   16804 H6        -227.7879   -70.6680   140.5285 H6            1 RES     
   16805 H6        -225.7338   -69.7957   139.9170 H6            1 RES     
   16806 H6        -224.8860   -71.3147   139.8332 H6            1 RES     
   16807 H6        -225.3309   -70.2388   137.8271 H6            1 RES     
   16808 H6        -227.0789   -70.5162   137.8621 H6            1 RES     
   16809 H6        -226.6625   -72.9528   137.4042 H6            1 RES     
   16810 H6        -224.9406   -72.8091   137.9229 H6            1 RES     
   16811 H6        -224.3535   -71.2961   136.1360 H6            1 RES     
   16812 H6        -226.0260   -71.3021   135.4624 H6            1 RES     
   16813 H6        -225.7566   -73.6584   134.7690 H6            1 RES     
   16814 H6        -224.1478   -73.7623   135.5912 H6            1 RES     
   16815 H6        -223.2142   -71.9823   134.1396 H6            1 RES     
   16816 H6        -224.7980   -71.7763   133.3041 H6            1 RES     
   16817 H6        -224.6384   -74.0860   132.3957 H6            1 RES     
   16818 H6        -223.0585   -74.3263   133.2561 H6            1 RES     
   16819 H6        -223.2036   -73.0922   131.9522 H6            1 RES     
   16820 C0        -228.5570   -61.7988   151.9427 C0            1 RES     
   16821 C1        -229.8706   -61.4406   151.8211 C1            1 RES     
   16822 C1        -230.7258   -62.3769   152.2780 C1            1 RES     
   16823 C1        -230.1007   -63.4404   152.6763 C1            1 RES     
   16824 C1        -228.6484   -63.2826   152.4847 C1            1 RES     
   16825 C1        -228.5313   -64.4093   151.4693 C1            1 RES     
   16826 C1        -229.5612   -65.3031   151.4097 C1            1 RES     
   16827 S2        -230.8110   -65.0489   152.7150 S2            1 RES     
   16828 C1        -229.6902   -66.3663   150.3267 C1            1 RES     
   16829 C1        -228.5816   -66.7236   149.5040 C1            1 RES     
   16830 N3        -228.6944   -67.6573   148.5152 N3            1 RES     
   16831 C1        -229.8560   -68.2885   148.2330 C1            1 RES     
   16832 C1        -230.9864   -67.9770   148.9781 C1            1 RES     
   16833 C1        -230.9064   -67.0192   150.0345 C1            1 RES     
   16834 N3        -232.0832   -66.7909   150.6832 N3            1 RES     
   16835 S2        -233.1367   -67.8023   149.9013 S2            1 RES     
   16836 N3        -232.2005   -68.5368   148.7560 N3            1 RES     
   16837 S2        -232.3362   -62.0025   152.0174 S2            1 RES     
   16838 C1        -231.9472   -60.5292   151.2788 C1            1 RES     
   16839 C1        -230.5568   -60.3805   151.2053 C1            1 RES     
   16840 C0        -227.8792   -60.7361   152.9357 C0            1 RES     
   16841 C0        -228.2016   -59.5331   153.9572 C0            1 RES     
   16842 C0        -229.1211   -58.3934   153.4158 C0            1 RES     
   16843 C0        -230.3766   -58.2259   154.2926 C0            1 RES     
   16844 C0        -231.4213   -57.2516   153.7193 C0            1 RES     
   16845 C0        -232.5710   -57.0802   154.7304 C0            1 RES     
   16846 C0        -233.7540   -56.2851   154.1639 C0            1 RES     
   16847 C0        -234.8458   -56.1177   155.2233 C0            1 RES     
   16848 C0        -226.7735   -58.9464   154.3511 C0            1 RES     
   16849 C0        -226.4777   -57.7497   155.3087 C0            1 RES     
   16850 C0        -226.5669   -56.3105   154.7144 C0            1 RES     
   16851 C0        -225.6036   -55.3276   155.4483 C0            1 RES     
   16852 C0        -225.5741   -53.9133   154.8324 C0            1 RES     
   16853 C0        -224.3071   -53.0925   155.1882 C0            1 RES     
   16854 C0        -224.0634   -52.8630   156.6868 C0            1 RES     
   16855 C0        -222.8102   -52.0042   156.9057 C0            1 RES     
   16856 C0        -227.7099   -61.5765   150.5988 C0            1 RES     
   16857 C0        -226.0835   -61.6721   150.4193 C0            1 RES     
   16858 C0        -225.2970   -60.6290   151.3105 C0            1 RES     
   16859 C0        -223.8212   -60.3689   151.0261 C0            1 RES     
   16860 C0        -223.1833   -59.2233   151.8324 C0            1 RES     
   16861 C0        -222.9595   -59.5790   153.3169 C0            1 RES     
   16862 C0        -221.8897   -58.6879   153.9737 C0            1 RES     
   16863 C0        -222.2968   -57.2300   154.1001 C0            1 RES     
   16864 C0        -225.3714   -63.0989   150.3441 C0            1 RES     
   16865 C0        -224.1276   -63.0782   149.3764 C0            1 RES     
   16866 C0        -223.3262   -64.3429   148.9618 C0            1 RES     
   16867 C0        -222.1406   -64.8219   149.8623 C0            1 RES     
   16868 C0        -221.0401   -65.4405   148.9451 C0            1 RES     
   16869 C0        -219.7550   -65.9602   149.6252 C0            1 RES     
   16870 C0        -218.7001   -66.2855   148.5378 C0            1 RES     
   16871 C0        -217.4026   -66.8666   149.0978 C0            1 RES     
   16872 H4        -227.7308   -64.4440   150.7777 H4            1 RES     
   16873 H5        -227.6119   -66.2784   149.6566 H5            1 RES     
   16874 H4        -230.0948   -59.5475   150.6997 H4            1 RES     
   16875 H6        -227.1875   -61.3783   153.5217 H6            1 RES     
   16876 H6        -227.3868   -60.0550   152.2712 H6            1 RES     
   16877 H6        -228.6557   -59.9613   154.8778 H6            1 RES     
   16878 H6        -228.5953   -57.4230   153.3685 H6            1 RES     
   16879 H6        -229.3765   -58.5667   152.3769 H6            1 RES     
   16880 H6        -230.8751   -59.2140   154.4037 H6            1 RES     
   16881 H6        -230.0469   -57.8749   155.2954 H6            1 RES     
   16882 H6        -230.9694   -56.2572   153.5088 H6            1 RES     
   16883 H6        -231.8115   -57.6751   152.7675 H6            1 RES     
   16884 H6        -232.1736   -56.5648   155.6335 H6            1 RES     
   16885 H6        -232.9497   -58.0815   155.0313 H6            1 RES     
   16886 H6        -233.4231   -55.2800   153.8255 H6            1 RES     
   16887 H6        -234.1802   -56.8342   153.2957 H6            1 RES     
   16888 H6        -235.1916   -57.1092   155.5881 H6            1 RES     
   16889 H6        -234.4590   -55.5326   156.0854 H6            1 RES     
   16890 H6        -235.7154   -55.5789   154.7919 H6            1 RES     
   16891 H6        -226.2450   -59.8079   154.8150 H6            1 RES     
   16892 H6        -226.2136   -58.6928   153.4234 H6            1 RES     
   16893 H6        -226.9893   -57.8371   156.2883 H6            1 RES     
   16894 H6        -225.3916   -57.8873   155.5105 H6            1 RES     
   16895 H6        -226.2130   -56.3413   153.6591 H6            1 RES     
   16896 H6        -227.6111   -55.9375   154.7291 H6            1 RES     
   16897 H6        -225.8327   -55.2632   156.5330 H6            1 RES     
   16898 H6        -224.5852   -55.7311   155.3442 H6            1 RES     
   16899 H6        -225.5544   -54.0029   153.7241 H6            1 RES     
   16900 H6        -226.4981   -53.3660   155.1156 H6            1 RES     
   16901 H6        -224.3901   -52.1036   154.6852 H6            1 RES     
   16902 H6        -223.4169   -53.6103   154.7659 H6            1 RES     
   16903 H6        -223.9117   -53.8385   157.1953 H6            1 RES     
   16904 H6        -224.9350   -52.3464   157.1395 H6            1 RES     
   16905 H6        -222.9355   -51.0045   156.4363 H6            1 RES     
   16906 H6        -221.9137   -52.4940   156.4670 H6            1 RES     
   16907 H6        -222.6320   -51.8598   157.9926 H6            1 RES     
   16908 H6        -228.1577   -62.2329   149.8206 H6            1 RES     
   16909 H6        -227.9431   -60.5440   150.2514 H6            1 RES     
   16910 H6        -225.9958   -61.2947   149.3774 H6            1 RES     
   16911 H6        -225.3534   -60.9269   152.3746 H6            1 RES     
   16912 H6        -225.7630   -59.6375   151.1259 H6            1 RES     
   16913 H6        -223.2266   -61.2615   151.2891 H6            1 RES     
   16914 H6        -223.7334   -60.1088   149.9490 H6            1 RES     
   16915 H6        -222.1808   -59.0802   151.3764 H6            1 RES     
   16916 H6        -223.7492   -58.2721   151.7169 H6            1 RES     
   16917 H6        -222.5499   -60.6097   153.3736 H6            1 RES     
   16918 H6        -223.9140   -59.5610   153.8840 H6            1 RES     
   16919 H6        -220.9490   -58.7539   153.3848 H6            1 RES     
   16920 H6        -221.6805   -59.0742   154.9948 H6            1 RES     
   16921 H6        -221.4706   -56.6528   154.5682 H6            1 RES     
   16922 H6        -223.1769   -57.1826   154.7570 H6            1 RES     
   16923 H6        -222.5273   -56.7786   153.1135 H6            1 RES     
   16924 H6        -225.1528   -63.5008   151.3577 H6            1 RES     
   16925 H6        -226.0426   -63.7952   149.8158 H6            1 RES     
   16926 H6        -224.5540   -62.7024   148.4214 H6            1 RES     
   16927 H6        -223.3502   -62.3668   149.6344 H6            1 RES     
   16928 H6        -222.8281   -63.9679   148.0394 H6            1 RES     
   16929 H6        -223.9687   -65.1852   148.6316 H6            1 RES     
   16930 H6        -222.4987   -65.5290   150.6418 H6            1 RES     
   16931 H6        -221.6663   -63.9522   150.3670 H6            1 RES     
   16932 H6        -220.7186   -64.6294   148.2529 H6            1 RES     
   16933 H6        -221.4723   -66.2652   148.3385 H6            1 RES     
   16934 H6        -219.9901   -66.8682   150.2213 H6            1 RES     
   16935 H6        -219.3315   -65.1844   150.2995 H6            1 RES     
   16936 H6        -218.4458   -65.3501   147.9899 H6            1 RES     
   16937 H6        -219.1163   -67.0134   147.8083 H6            1 RES     
   16938 H6        -217.5963   -67.8395   149.5951 H6            1 RES     
   16939 H6        -216.9310   -66.1655   149.8174 H6            1 RES     
   16940 H6        -216.6883   -67.0396   148.2614 H6            1 RES     
   16941 C0        -236.8470   -55.0868   145.6967 C0            1 RES     
   16942 C1        -237.8225   -56.0360   145.5693 C1            1 RES     
   16943 C1        -238.3549   -56.4188   146.7469 C1            1 RES     
   16944 C1        -237.7701   -55.8366   147.7467 C1            1 RES     
   16945 C1        -236.6960   -54.9500   147.2659 C1            1 RES     
   16946 C1        -235.5763   -55.7334   147.9344 C1            1 RES     
   16947 C1        -235.9299   -56.5992   148.9285 C1            1 RES     
   16948 S2        -237.6970   -56.5012   149.3733 S2            1 RES     
   16949 C1        -234.9641   -57.5928   149.5610 C1            1 RES     
   16950 C1        -233.5534   -57.4577   149.4025 C1            1 RES     
   16951 N3        -232.6818   -58.3567   149.9451 N3            1 RES     
   16952 C1        -233.0878   -59.4392   150.6456 C1            1 RES     
   16953 C1        -234.4493   -59.6504   150.8237 C1            1 RES     
   16954 C1        -235.3942   -58.7229   150.2883 C1            1 RES     
   16955 N3        -236.6983   -59.0452   150.5186 N3            1 RES     
   16956 S2        -236.5822   -60.4565   151.3783 S2            1 RES     
   16957 N3        -234.9551   -60.7175   151.4889 N3            1 RES     
   16958 S2        -239.4585   -57.6698   146.6120 S2            1 RES     
   16959 C1        -239.2772   -57.7425   144.9300 C1            1 RES     
   16960 C1        -238.3155   -56.8157   144.5096 C1            1 RES     
   16961 C0        -237.3739   -53.7784   144.9319 C0            1 RES     
   16962 C0        -238.6689   -53.1228   144.2335 C0            1 RES     
   16963 C0        -239.3999   -54.0008   143.1693 C0            1 RES     
   16964 C0        -240.8764   -54.2226   143.5484 C0            1 RES     
   16965 C0        -241.6143   -55.2305   142.6488 C0            1 RES     
   16966 C0        -243.1007   -55.2832   143.0507 C0            1 RES     
   16967 C0        -243.8733   -56.4042   142.3442 C0            1 RES     
   16968 C0        -245.3473   -56.3829   142.7555 C0            1 RES     
   16969 C0        -238.1288   -51.7824   143.5626 C0            1 RES     
   16970 C0        -238.9504   -50.7460   142.7332 C0            1 RES     
   16971 C0        -239.1791   -51.0506   141.2209 C0            1 RES     
   16972 C0        -239.3183   -49.7393   140.3878 C0            1 RES     
   16973 C0        -239.4416   -49.9803   138.8689 C0            1 RES     
   16974 C0        -239.0770   -48.7489   137.9993 C0            1 RES     
   16975 C0        -239.9100   -47.4845   138.2556 C0            1 RES     
   16976 C0        -239.4851   -46.3554   137.3068 C0            1 RES     
   16977 C0        -235.5133   -55.4308   144.8747 C0            1 RES     
   16978 C0        -234.2315   -54.4472   144.5991 C0            1 RES     
   16979 C0        -234.6128   -53.1385   143.7974 C0            1 RES     
   16980 C0        -233.5031   -52.2889   143.1863 C0            1 RES     
   16981 C0        -233.9741   -51.1305   142.2886 C0            1 RES     
   16982 C0        -234.5965   -49.9634   143.0827 C0            1 RES     
   16983 C0        -234.5801   -48.6450   142.2881 C0            1 RES     
   16984 C0        -235.4796   -48.6535   141.0642 C0            1 RES     
   16985 C0        -233.1617   -54.1876   145.7552 C0            1 RES     
   16986 C0        -231.7070   -54.0148   145.1739 C0            1 RES     
   16987 C0        -230.4265   -53.9151   146.0480 C0            1 RES     
   16988 C0        -229.9734   -52.5149   146.5771 C0            1 RES     
   16989 C0        -228.4140   -52.4853   146.6284 C0            1 RES     
   16990 C0        -227.7413   -51.1783   147.1012 C0            1 RES     
   16991 C0        -226.2177   -51.2647   146.8326 C0            1 RES     
   16992 C0        -225.4400   -50.0425   147.3185 C0            1 RES     
   16993 H4        -234.5802   -55.6772   147.5809 H4            1 RES     
   16994 H5        -233.1335   -56.6233   148.8646 H5            1 RES     
   16995 H4        -237.9899   -56.7521   143.4835 H4            1 RES     
   16996 H6        -237.0129   -52.9637   145.5955 H6            1 RES     
   16997 H6        -236.8737   -53.8260   143.9858 H6            1 RES     
   16998 H6        -239.3927   -52.8347   145.0274 H6            1 RES     
   16999 H6        -239.3613   -53.5496   142.1617 H6            1 RES     
   17000 H6        -238.8777   -54.9387   143.0207 H6            1 RES     
   17001 H6        -240.9285   -54.6117   144.5891 H6            1 RES     
   17002 H6        -241.3902   -53.2368   143.5071 H6            1 RES     
   17003 H6        -241.5362   -54.9436   141.5770 H6            1 RES     
   17004 H6        -241.1474   -56.2309   142.7856 H6            1 RES     
   17005 H6        -243.5666   -54.3010   142.8113 H6            1 RES     
   17006 H6        -243.1805   -55.4560   144.1462 H6            1 RES     
   17007 H6        -243.8052   -56.2906   141.2411 H6            1 RES     
   17008 H6        -243.4364   -57.3856   142.6319 H6            1 RES     
   17009 H6        -245.4470   -56.4863   143.8578 H6            1 RES     
   17010 H6        -245.8212   -55.4286   142.4398 H6            1 RES     
   17011 H6        -245.8892   -57.2234   142.2730 H6            1 RES     
   17012 H6        -237.7262   -51.1948   144.4167 H6            1 RES     
   17013 H6        -237.2624   -52.0244   142.9075 H6            1 RES     
   17014 H6        -239.8761   -50.4128   143.2441 H6            1 RES     
   17015 H6        -238.2644   -49.8693   142.7273 H6            1 RES     
   17016 H6        -238.2736   -51.5615   140.8222 H6            1 RES     
   17017 H6        -240.0554   -51.7146   141.0763 H6            1 RES     
   17018 H6        -240.1670   -49.1171   140.7423 H6            1 RES     
   17019 H6        -238.3940   -49.1606   140.5347 H6            1 RES     
   17020 H6        -238.7155   -50.7671   138.5684 H6            1 RES     
   17021 H6        -240.4627   -50.3484   138.6333 H6            1 RES     
   17022 H6        -239.1914   -49.0404   136.9317 H6            1 RES     
   17023 H6        -238.0051   -48.4995   138.1663 H6            1 RES     
   17024 H6        -239.7559   -47.1399   139.3000 H6            1 RES     
   17025 H6        -240.9870   -47.6996   138.0966 H6            1 RES     
   17026 H6        -239.6535   -46.6509   136.2485 H6            1 RES     
   17027 H6        -238.4091   -46.1098   137.4411 H6            1 RES     
   17028 H6        -240.0801   -45.4402   137.5127 H6            1 RES     
   17029 H6        -235.1072   -56.3765   145.2960 H6            1 RES     
   17030 H6        -235.8440   -55.7100   143.8481 H6            1 RES     
   17031 H6        -233.6707   -55.0812   143.8786 H6            1 RES     
   17032 H6        -235.1947   -52.4571   144.4465 H6            1 RES     
   17033 H6        -235.1909   -53.4676   142.9075 H6            1 RES     
   17034 H6        -232.9197   -51.8028   143.9880 H6            1 RES     
   17035 H6        -232.8775   -52.9627   142.5617 H6            1 RES     
   17036 H6        -233.0468   -50.7449   141.8145 H6            1 RES     
   17037 H6        -234.6495   -51.4845   141.4781 H6            1 RES     
   17038 H6        -233.9649   -49.7692   143.9754 H6            1 RES     
   17039 H6        -235.6177   -50.2167   143.4376 H6            1 RES     
   17040 H6        -233.5375   -48.4228   141.9726 H6            1 RES     
   17041 H6        -234.9174   -47.8218   142.9546 H6            1 RES     
   17042 H6        -235.4020   -47.6771   140.5394 H6            1 RES     
   17043 H6        -236.5148   -48.7878   141.4089 H6            1 RES     
   17044 H6        -235.2024   -49.4588   140.3536 H6            1 RES     
   17045 H6        -233.4820   -53.3652   146.4318 H6            1 RES     
   17046 H6        -233.0502   -55.1147   146.3404 H6            1 RES     
   17047 H6        -231.5582   -54.9424   144.5801 H6            1 RES     
   17048 H6        -231.5842   -53.2050   144.4626 H6            1 RES     
   17049 H6        -229.6513   -54.1808   145.2943 H6            1 RES     
   17050 H6        -230.3625   -54.6996   146.8301 H6            1 RES     
   17051 H6        -230.4406   -52.2957   147.5617 H6            1 RES     
   17052 H6        -230.2720   -51.7187   145.8607 H6            1 RES     
   17053 H6        -228.0642   -52.6545   145.5848 H6            1 RES     
   17054 H6        -228.0401   -53.3191   147.2608 H6            1 RES     
   17055 H6        -227.9362   -51.0301   148.1852 H6            1 RES     
   17056 H6        -228.1448   -50.3084   146.5388 H6            1 RES     
   17057 H6        -226.0490   -51.3620   145.7363 H6            1 RES     
   17058 H6        -225.7930   -52.1630   147.3307 H6            1 RES     
   17059 H6        -225.5214   -49.9441   148.4208 H6            1 RES     
   17060 H6        -225.8101   -49.1165   146.8315 H6            1 RES     
   17061 H6        -224.3643   -50.1664   147.0588 H6            1 RES     
   17062 C0        -241.2864   -64.4202   138.9168 C0            1 RES     
   17063 C1        -241.5400   -65.3038   139.9287 C1            1 RES     
   17064 C1        -242.4927   -64.8809   140.7832 C1            1 RES     
   17065 C1        -242.9115   -63.6920   140.4805 C1            1 RES     
   17066 C1        -242.1932   -63.1813   139.2998 C1            1 RES     
   17067 C1        -241.5316   -62.0300   140.0422 C1            1 RES     
   17068 C1        -242.0688   -61.6748   141.2457 C1            1 RES     
   17069 S2        -243.6125   -62.5665   141.6359 S2            1 RES     
   17070 C1        -241.4153   -60.6818   142.1979 C1            1 RES     
   17071 C1        -240.3821   -59.8032   141.7571 C1            1 RES     
   17072 N3        -239.7742   -58.9274   142.6089 N3            1 RES     
   17073 C1        -240.0881   -58.8447   143.9212 C1            1 RES     
   17074 C1        -241.0708   -59.6848   144.4296 C1            1 RES     
   17075 C1        -241.7449   -60.6025   143.5676 C1            1 RES     
   17076 N3        -242.6785   -61.3798   144.1855 N3            1 RES     
   17077 S2        -242.6039   -60.8643   145.7582 S2            1 RES     
   17078 N3        -241.4385   -59.6943   145.7340 N3            1 RES     
   17079 S2        -242.7198   -65.8961   142.0943 S2            1 RES     
   17080 C1        -241.5353   -66.9778   141.5518 C1            1 RES     
   17081 C1        -240.9474   -66.4966   140.3756 C1            1 RES     
   17082 C0        -241.6683   -65.1648   137.5478 C0            1 RES     
   17083 C0        -242.3868   -66.4746   136.9455 C0            1 RES     
   17084 C0        -241.9216   -67.8474   137.5256 C0            1 RES     
   17085 C0        -243.1039   -68.6252   138.1340 C0            1 RES     
   17086 C0        -242.6965   -69.9019   138.8915 C0            1 RES     
   17087 C0        -243.9620   -70.6491   139.3537 C0            1 RES     
   17088 C0        -243.6555   -71.8264   140.2879 C0            1 RES     
   17089 C0        -244.9454   -72.5491   140.6829 C0            1 RES     
   17090 C0        -242.0924   -66.4113   135.3809 C0            1 RES     
   17091 C0        -242.5403   -67.4395   134.2951 C0            1 RES     
   17092 C0        -241.6608   -68.7127   134.1004 C0            1 RES     
   17093 C0        -241.7309   -69.2378   132.6334 C0            1 RES     
   17094 C0        -240.7972   -70.4348   132.3583 C0            1 RES     
   17095 C0        -240.4634   -70.6479   130.8588 C0            1 RES     
   17096 C0        -241.6688   -70.8823   129.9367 C0            1 RES     
   17097 C0        -241.2067   -71.1230   128.4930 C0            1 RES     
   17098 C0        -239.7236   -64.1274   138.7045 C0            1 RES     
   17099 C0        -239.0218   -63.3149   137.4661 C0            1 RES     
   17100 C0        -239.2793   -63.9852   136.0571 C0            1 RES     
   17101 C0        -238.4426   -63.5474   134.8593 C0            1 RES     
   17102 C0        -238.6486   -64.3668   133.5726 C0            1 RES     
   17103 C0        -240.0007   -64.0850   132.8851 C0            1 RES     
   17104 C0        -239.9883   -64.4743   131.3957 C0            1 RES     
   17105 C0        -239.8635   -65.9682   131.1518 C0            1 RES     
   17106 C0        -239.0786   -61.7201   137.4240 C0            1 RES     
   17107 C0        -237.7694   -61.1075   136.7956 C0            1 RES     
   17108 C0        -237.4472   -59.5880   136.7651 C0            1 RES     
   17109 C0        -237.9712   -58.7228   135.5724 C0            1 RES     
   17110 C0        -236.9239   -57.6053   135.2730 C0            1 RES     
   17111 C0        -237.2255   -56.6401   134.1061 C0            1 RES     
   17112 C0        -235.9644   -55.7897   133.8107 C0            1 RES     
   17113 C0        -236.1694   -54.7533   132.7068 C0            1 RES     
   17114 H4        -240.6396   -61.5866   139.6844 H4            1 RES     
   17115 H5        -240.0667   -59.7916   140.7265 H5            1 RES     
   17116 H4        -240.1142   -66.9945   139.9054 H4            1 RES     
   17117 H6        -242.1232   -64.3408   136.9575 H6            1 RES     
   17118 H6        -240.7212   -65.4990   137.1748 H6            1 RES     
   17119 H6        -243.4854   -66.3731   137.0863 H6            1 RES     
   17120 H6        -241.4433   -68.4818   136.7580 H6            1 RES     
   17121 H6        -241.1197   -67.7100   138.2416 H6            1 RES     
   17122 H6        -243.6347   -67.9689   138.8583 H6            1 RES     
   17123 H6        -243.8011   -68.8860   137.3073 H6            1 RES     
   17124 H6        -242.0906   -70.5752   138.2459 H6            1 RES     
   17125 H6        -242.0851   -69.6073   139.7730 H6            1 RES     
   17126 H6        -244.5030   -71.0183   138.4536 H6            1 RES     
   17127 H6        -244.6255   -69.9457   139.9027 H6            1 RES     
   17128 H6        -242.9736   -72.5506   139.7931 H6            1 RES     
   17129 H6        -243.1646   -71.4427   141.2092 H6            1 RES     
   17130 H6        -245.6526   -71.8459   141.1740 H6            1 RES     
   17131 H6        -245.4350   -72.9816   139.7839 H6            1 RES     
   17132 H6        -244.7184   -73.3723   141.3925 H6            1 RES     
   17133 H6        -242.5512   -65.4513   135.0573 H6            1 RES     
   17134 H6        -240.9962   -66.3096   135.2186 H6            1 RES     
   17135 H6        -243.6232   -67.6735   134.3351 H6            1 RES     
   17136 H6        -242.3806   -66.8600   133.3582 H6            1 RES     
   17137 H6        -240.5953   -68.4351   134.2663 H6            1 RES     
   17138 H6        -241.9396   -69.5042   134.8253 H6            1 RES     
   17139 H6        -242.7707   -69.4936   132.3393 H6            1 RES     
   17140 H6        -241.3885   -68.4222   131.9789 H6            1 RES     
   17141 H6        -239.8155   -70.2457   132.8453 H6            1 RES     
   17142 H6        -241.2306   -71.3540   132.8064 H6            1 RES     
   17143 H6        -239.7814   -71.5237   130.7831 H6            1 RES     
   17144 H6        -239.9087   -69.7572   130.4871 H6            1 RES     
   17145 H6        -242.3284   -69.9890   129.9482 H6            1 RES     
   17146 H6        -242.2447   -71.7664   130.2804 H6            1 RES     
   17147 H6        -240.5668   -72.0299   128.4343 H6            1 RES     
   17148 H6        -240.6277   -70.2532   128.1130 H6            1 RES     
   17149 H6        -242.0861   -71.2726   127.8311 H6            1 RES     
   17150 H6        -239.3494   -63.6653   139.6444 H6            1 RES     
   17151 H6        -239.2226   -65.1219   138.6717 H6            1 RES     
   17152 H6        -237.9544   -63.5201   137.6993 H6            1 RES     
   17153 H6        -240.3351   -63.8395   135.7598 H6            1 RES     
   17154 H6        -239.0165   -65.0595   136.1630 H6            1 RES     
   17155 H6        -238.7056   -62.5126   134.5776 H6            1 RES     
   17156 H6        -237.3741   -63.6444   135.1499 H6            1 RES     
   17157 H6        -237.8522   -64.0156   132.8828 H6            1 RES     
   17158 H6        -238.4932   -65.4549   133.7466 H6            1 RES     
   17159 H6        -240.1781   -62.9887   132.8945 H6            1 RES     
   17160 H6        -240.8384   -64.5694   133.4295 H6            1 RES     
   17161 H6        -239.1482   -63.9509   130.8894 H6            1 RES     
   17162 H6        -240.9360   -64.1295   130.9283 H6            1 RES     
   17163 H6        -239.8476   -66.1661   130.0584 H6            1 RES     
   17164 H6        -240.7487   -66.4547   131.5857 H6            1 RES     
   17165 H6        -238.9372   -66.3837   131.5987 H6            1 RES     
   17166 H6        -240.0204   -61.3565   136.9576 H6            1 RES     
   17167 H6        -239.0175   -61.3425   138.4575 H6            1 RES     
   17168 H6        -236.9594   -61.5438   137.4191 H6            1 RES     
   17169 H6        -237.5462   -61.4278   135.7835 H6            1 RES     
   17170 H6        -236.3456   -59.6226   136.6079 H6            1 RES     
   17171 H6        -237.5926   -59.0852   137.7435 H6            1 RES     
   17172 H6        -238.9821   -58.3169   135.7943 H6            1 RES     
   17173 H6        -238.0343   -59.3394   134.6493 H6            1 RES     
   17174 H6        -235.9773   -58.1280   135.0067 H6            1 RES     
   17175 H6        -236.7428   -57.0012   136.1880 H6            1 RES     
   17176 H6        -238.0809   -55.9842   134.3768 H6            1 RES     
   17177 H6        -237.4836   -57.2103   133.1873 H6            1 RES     
   17178 H6        -235.1386   -56.4661   133.4937 H6            1 RES     
   17179 H6        -235.6417   -55.2542   134.7296 H6            1 RES     
   17180 H6        -236.9383   -54.0123   133.0086 H6            1 RES     
   17181 H6        -236.4710   -55.2398   131.7559 H6            1 RES     
   17182 H6        -235.2130   -54.2107   132.5322 H6            1 RES     
   17183 C0        -236.7911   -73.4846   146.0173 C0            1 RES     
   17184 C1        -237.2627   -73.0499   147.2245 C1            1 RES     
   17185 C1        -238.6082   -73.0466   147.3046 C1            1 RES     
   17186 C1        -239.1537   -73.4024   146.1837 C1            1 RES     
   17187 C1        -238.1163   -73.6830   145.1758 C1            1 RES     
   17188 C1        -238.5336   -72.5531   144.2465 C1            1 RES     
   17189 C1        -239.7776   -72.0226   144.4311 C1            1 RES     
   17190 S2        -240.7668   -72.9228   145.6727 S2            1 RES     
   17191 C1        -240.2708   -70.7686   143.7210 C1            1 RES     
   17192 C1        -239.6027   -70.2588   142.5690 C1            1 RES     
   17193 N3        -240.0229   -69.1224   141.9410 N3            1 RES     
   17194 C1        -241.0771   -68.3944   142.3723 C1            1 RES     
   17195 C1        -241.7657   -68.8165   143.5027 C1            1 RES     
   17196 C1        -241.3700   -70.0110   144.1781 C1            1 RES     
   17197 N3        -242.1145   -70.3133   145.2789 N3            1 RES     
   17198 S2        -243.2165   -69.0773   145.3286 S2            1 RES     
   17199 N3        -242.8187   -68.1428   144.0262 N3            1 RES     
   17200 S2        -239.1962   -72.3970   148.7306 S2            1 RES     
   17201 C1        -237.6371   -72.1007   149.3211 C1            1 RES     
   17202 C1        -236.6827   -72.4718   148.3661 C1            1 RES     
   17203 C0        -235.9442   -74.8166   146.3054 C0            1 RES     
   17204 C0        -235.5941   -75.9060   147.4391 C0            1 RES     
   17205 C0        -235.1184   -75.3435   148.8157 C0            1 RES     
   17206 C0        -236.0307   -75.8245   149.9600 C0            1 RES     
   17207 C0        -235.7396   -75.1636   151.3194 C0            1 RES     
   17208 C0        -236.6317   -75.8024   152.4010 C0            1 RES     
   17209 C0        -236.5560   -75.0729   153.7481 C0            1 RES     
   17210 C0        -237.4331   -75.7732   154.7886 C0            1 RES     
   17211 C0        -234.4527   -76.8089   146.7906 C0            1 RES     
   17212 C0        -233.7209   -78.0203   147.4492 C0            1 RES     
   17213 C0        -232.5176   -77.7110   148.3918 C0            1 RES     
   17214 C0        -231.4737   -78.8699   148.3863 C0            1 RES     
   17215 C0        -230.2113   -78.5708   149.2212 C0            1 RES     
   17216 C0        -228.9803   -79.4348   148.8421 C0            1 RES     
   17217 C0        -229.1709   -80.9535   148.9663 C0            1 RES     
   17218 C0        -227.8744   -81.6925   148.6080 C0            1 RES     
   17219 C0        -235.6769   -72.5195   145.3846 C0            1 RES     
   17220 C0        -234.7269   -72.8148   144.0820 C0            1 RES     
   17221 C0        -233.7960   -74.0801   144.2649 C0            1 RES     
   17222 C0        -232.6386   -74.3001   143.2962 C0            1 RES     
   17223 C0        -231.6917   -75.4614   143.6488 C0            1 RES     
   17224 C0        -232.3190   -76.8497   143.4050 C0            1 RES     
   17225 C0        -231.2538   -77.9505   143.2515 C0            1 RES     
   17226 C0        -230.4662   -78.2253   144.5208 C0            1 RES     
   17227 C0        -235.3289   -72.6841   142.6092 C0            1 RES     
   17228 C0        -234.2548   -72.1505   141.5867 C0            1 RES     
   17229 C0        -234.5712   -71.7593   140.1169 C0            1 RES     
   17230 C0        -234.5253   -72.8622   139.0090 C0            1 RES     
   17231 C0        -234.0221   -72.2118   137.6828 C0            1 RES     
   17232 C0        -233.8734   -73.1302   136.4504 C0            1 RES     
   17233 C0        -233.1247   -72.3628   135.3318 C0            1 RES     
   17234 C0        -232.9735   -73.1606   134.0374 C0            1 RES     
   17235 H4        -237.8545   -72.1361   143.5500 H4            1 RES     
   17236 H5        -238.7548   -70.7733   142.1470 H5            1 RES     
   17237 H4        -235.6287   -72.2935   148.5089 H4            1 RES     
   17238 H6        -236.2041   -75.4479   145.4289 H6            1 RES     
   17239 H6        -234.9305   -74.4698   146.3096 H6            1 RES     
   17240 H6        -236.4855   -76.5519   147.5980 H6            1 RES     
   17241 H6        -234.0797   -75.6393   149.0483 H6            1 RES     
   17242 H6        -235.0476   -74.2625   148.7853 H6            1 RES     
   17243 H6        -237.0877   -75.5932   149.7020 H6            1 RES     
   17244 H6        -235.9150   -76.9275   150.0467 H6            1 RES     
   17245 H6        -234.6722   -75.2893   151.6061 H6            1 RES     
   17246 H6        -235.9613   -74.0767   151.2362 H6            1 RES     
   17247 H6        -236.3219   -76.8633   152.5334 H6            1 RES     
   17248 H6        -237.6912   -75.7817   152.0643 H6            1 RES     
   17249 H6        -235.5092   -75.0450   154.1191 H6            1 RES     
   17250 H6        -236.9192   -74.0297   153.6189 H6            1 RES     
   17251 H6        -238.4875   -75.8240   154.4404 H6            1 RES     
   17252 H6        -237.0646   -76.8058   154.9702 H6            1 RES     
   17253 H6        -237.4059   -75.2143   155.7475 H6            1 RES     
   17254 H6        -234.9290   -77.2360   145.8808 H6            1 RES     
   17255 H6        -233.6247   -76.1544   146.4377 H6            1 RES     
   17256 H6        -234.4159   -78.7692   147.8795 H6            1 RES     
   17257 H6        -233.2487   -78.5046   146.5650 H6            1 RES     
   17258 H6        -231.9771   -76.8220   147.9950 H6            1 RES     
   17259 H6        -232.8649   -77.4865   149.4207 H6            1 RES     
   17260 H6        -231.9258   -79.8296   148.7144 H6            1 RES     
   17261 H6        -231.1340   -78.9972   147.3474 H6            1 RES     
   17262 H6        -229.8935   -77.5221   149.0314 H6            1 RES     
   17263 H6        -230.4498   -78.6663   150.3017 H6            1 RES     
   17264 H6        -228.1344   -79.1273   149.4962 H6            1 RES     
   17265 H6        -228.6933   -79.2046   147.7915 H6            1 RES     
   17266 H6        -229.9683   -81.2889   148.2700 H6            1 RES     
   17267 H6        -229.4581   -81.2173   150.0053 H6            1 RES     
   17268 H6        -227.0567   -81.4059   149.3044 H6            1 RES     
   17269 H6        -227.5575   -81.4542   147.5693 H6            1 RES     
   17270 H6        -228.0280   -82.7901   148.6827 H6            1 RES     
   17271 H6        -236.1619   -71.5339   145.2112 H6            1 RES     
   17272 H6        -234.9399   -72.3215   146.1962 H6            1 RES     
   17273 H6        -234.0484   -71.9371   144.1525 H6            1 RES     
   17274 H6        -234.4053   -75.0028   144.2251 H6            1 RES     
   17275 H6        -233.2812   -73.9577   145.2419 H6            1 RES     
   17276 H6        -233.0313   -74.5528   142.2955 H6            1 RES     
   17277 H6        -232.0343   -73.3673   143.2865 H6            1 RES     
   17278 H6        -230.8419   -75.3585   142.9412 H6            1 RES     
   17279 H6        -231.2885   -75.3665   144.6817 H6            1 RES     
   17280 H6        -232.8530   -76.8282   142.4315 H6            1 RES     
   17281 H6        -233.0595   -77.1014   144.1932 H6            1 RES     
   17282 H6        -230.5495   -77.6652   142.4401 H6            1 RES     
   17283 H6        -231.7567   -78.8949   142.9500 H6            1 RES     
   17284 H6        -229.7119   -79.0177   144.3258 H6            1 RES     
   17285 H6        -231.1713   -78.5887   145.2819 H6            1 RES     
   17286 H6        -229.9397   -77.3192   144.8844 H6            1 RES     
   17287 H6        -235.8351   -73.6213   142.2896 H6            1 RES     
   17288 H6        -236.0589   -71.8586   142.6038 H6            1 RES     
   17289 H6        -233.9101   -71.2016   142.0515 H6            1 RES     
   17290 H6        -233.3603   -72.7572   141.4938 H6            1 RES     
   17291 H6        -233.6923   -71.1145   139.8902 H6            1 RES     
   17292 H6        -235.4579   -71.0999   140.0157 H6            1 RES     
   17293 H6        -235.5174   -73.3515   138.8989 H6            1 RES     
   17294 H6        -233.7762   -73.6403   139.2728 H6            1 RES     
   17295 H6        -233.0046   -71.8131   137.8972 H6            1 RES     
   17296 H6        -234.6791   -71.3594   137.4059 H6            1 RES     
   17297 H6        -234.8789   -73.4461   136.0979 H6            1 RES     
   17298 H6        -233.2803   -74.0342   136.7090 H6            1 RES     
   17299 H6        -232.1039   -72.1028   135.6928 H6            1 RES     
   17300 H6        -233.6599   -71.4184   135.0931 H6            1 RES     
   17301 H6        -233.9690   -73.3840   133.6010 H6            1 RES     
   17302 H6        -232.4220   -74.1071   134.2160 H6            1 RES     
   17303 H6        -232.3982   -72.5563   133.3002 H6            1 RES     
   17304 C0        -234.6597   -66.4589   155.9614 C0            1 RES     
   17305 C1        -235.8896   -65.8705   156.0618 C1            1 RES     
   17306 C1        -236.8801   -66.7425   156.3361 C1            1 RES     
   17307 C1        -236.4430   -67.9621   156.3815 C1            1 RES     
   17308 C1        -234.9968   -67.9985   156.1022 C1            1 RES     
   17309 C1        -235.1355   -68.8069   154.8210 C1            1 RES     
   17310 C1        -236.3135   -69.4683   154.6266 C1            1 RES     
   17311 S2        -237.4339   -69.3802   156.0646 S2            1 RES     
   17312 C1        -236.6853   -70.1575   153.3202 C1            1 RES     
   17313 C1        -235.7003   -70.4524   152.3322 C1            1 RES     
   17314 N3        -236.0280   -71.0475   151.1487 N3            1 RES     
   17315 C1        -237.2975   -71.3774   150.8216 C1            1 RES     
   17316 C1        -238.3159   -71.1010   151.7252 C1            1 RES     
   17317 C1        -238.0129   -70.4963   152.9831 C1            1 RES     
   17318 N3        -239.0965   -70.2646   153.7766 N3            1 RES     
   17319 S2        -240.3527   -70.8356   152.8599 S2            1 RES     
   17320 N3        -239.6211   -71.3712   151.4795 N3            1 RES     
   17321 S2        -238.4046   -66.0518   156.3352 S2            1 RES     
   17322 C1        -237.7864   -64.5172   155.9747 C1            1 RES     
   17323 C1        -236.3972   -64.5844   155.8123 C1            1 RES     
   17324 C0        -233.7534   -65.8356   157.1295 C0            1 RES     
   17325 C0        -233.8020   -64.9230   158.4559 C0            1 RES     
   17326 C0        -234.5208   -63.5436   158.3207 C0            1 RES     
   17327 C0        -235.6824   -63.4192   159.3248 C0            1 RES     
   17328 C0        -236.5559   -62.1672   159.1273 C0            1 RES     
   17329 C0        -237.6067   -62.0933   160.2516 C0            1 RES     
   17330 C0        -238.6485   -60.9904   160.0268 C0            1 RES     
   17331 C0        -239.6410   -60.9430   161.1909 C0            1 RES     
   17332 C0        -232.2739   -64.7095   158.8535 C0            1 RES     
   17333 C0        -231.7196   -63.8868   160.0587 C0            1 RES     
   17334 C0        -231.5705   -62.3455   159.8729 C0            1 RES     
   17335 C0        -230.4104   -61.7736   160.7445 C0            1 RES     
   17336 C0        -230.1503   -60.2695   160.5203 C0            1 RES     
   17337 C0        -228.7392   -59.7973   160.9577 C0            1 RES     
   17338 C0        -228.3885   -60.0309   162.4344 C0            1 RES     
   17339 C0        -226.9903   -59.4830   162.7515 C0            1 RES     
   17340 C0        -233.8492   -66.0188   154.6489 C0            1 RES     
   17341 C0        -232.2781   -66.3272   154.2985 C0            1 RES     
   17342 C0        -231.2732   -65.7125   155.3536 C0            1 RES     
   17343 C0        -229.7894   -65.6303   155.0097 C0            1 RES     
   17344 C0        -228.9156   -64.8707   156.0240 C0            1 RES     
   17345 C0        -228.6926   -65.6515   157.3358 C0            1 RES     
   17346 C0        -227.4483   -65.1630   158.0993 C0            1 RES     
   17347 C0        -227.5747   -63.7495   158.6405 C0            1 RES     
   17348 C0        -231.8441   -67.7754   153.7859 C0            1 RES     
   17349 C0        -230.6636   -67.6947   152.7448 C0            1 RES     
   17350 C0        -230.1280   -68.9109   151.9402 C0            1 RES     
   17351 C0        -229.0102   -69.8064   152.5683 C0            1 RES     
   17352 C0        -228.0854   -70.3217   151.4218 C0            1 RES     
   17353 C0        -226.8874   -71.2117   151.8182 C0            1 RES     
   17354 C0        -225.9615   -71.3949   150.5894 C0            1 RES     
   17355 C0        -224.7683   -72.3121   150.8531 C0            1 RES     
   17356 H4        -234.3877   -68.7815   154.0723 H4            1 RES     
   17357 H5        -234.6594   -70.2317   152.5041 H5            1 RES     
   17358 H4        -235.8140   -63.7323   155.5013 H4            1 RES     
   17359 H6        -233.1650   -66.7184   157.4592 H6            1 RES     
   17360 H6        -233.1755   -65.0889   156.6232 H6            1 RES     
   17361 H6        -234.2841   -65.5066   159.2708 H6            1 RES     
   17362 H6        -233.8285   -62.6975   158.4797 H6            1 RES     
   17363 H6        -234.8513   -63.3809   157.3014 H6            1 RES     
   17364 H6        -236.3481   -64.3041   159.2198 H6            1 RES     
   17365 H6        -235.2479   -63.4158   160.3489 H6            1 RES     
   17366 H6        -235.9394   -61.2415   159.1429 H6            1 RES     
   17367 H6        -237.0607   -62.2434   158.1389 H6            1 RES     
   17368 H6        -237.0802   -61.9179   161.2165 H6            1 RES     
   17369 H6        -238.1484   -63.0624   160.3141 H6            1 RES     
   17370 H6        -238.1548   -59.9995   159.9336 H6            1 RES     
   17371 H6        -239.2078   -61.2025   159.0892 H6            1 RES     
   17372 H6        -240.1457   -61.9257   161.3143 H6            1 RES     
   17373 H6        -239.1141   -60.6885   162.1357 H6            1 RES     
   17374 H6        -240.4159   -60.1713   160.9993 H6            1 RES     
   17375 H6        -231.8916   -65.7399   159.0239 H6            1 RES     
   17376 H6        -231.7204   -64.3068   157.9761 H6            1 RES     
   17377 H6        -232.1928   -64.1543   161.0249 H6            1 RES     
   17378 H6        -230.6691   -64.2509   160.1144 H6            1 RES     
   17379 H6        -231.2774   -62.1433   158.8179 H6            1 RES     
   17380 H6        -232.5267   -61.8246   160.0829 H6            1 RES     
   17381 H6        -230.5735   -61.9725   161.8248 H6            1 RES     
   17382 H6        -229.4893   -62.2947   160.4431 H6            1 RES     
   17383 H6        -230.1985   -60.0537   159.4304 H6            1 RES     
   17384 H6        -230.9441   -59.6768   161.0224 H6            1 RES     
   17385 H6        -228.6624   -58.7087   160.7412 H6            1 RES     
   17386 H6        -227.9795   -60.3184   160.3328 H6            1 RES     
   17387 H6        -228.3952   -61.1196   162.6531 H6            1 RES     
   17388 H6        -229.1287   -59.5224   163.0863 H6            1 RES     
   17389 H6        -226.9515   -58.3864   162.5740 H6            1 RES     
   17390 H6        -226.2201   -59.9740   162.1176 H6            1 RES     
   17391 H6        -226.7387   -59.6735   163.8165 H6            1 RES     
   17392 H6        -234.4453   -66.3538   153.7718 H6            1 RES     
   17393 H6        -233.9048   -64.9069   154.6074 H6            1 RES     
   17394 H6        -232.1707   -65.6982   153.3882 H6            1 RES     
   17395 H6        -231.3342   -66.2773   156.3030 H6            1 RES     
   17396 H6        -231.5573   -64.6458   155.4796 H6            1 RES     
   17397 H6        -229.3573   -66.6458   154.9728 H6            1 RES     
   17398 H6        -229.7052   -65.1028   154.0349 H6            1 RES     
   17399 H6        -227.9260   -64.7746   155.5292 H6            1 RES     
   17400 H6        -229.3020   -63.8448   156.2153 H6            1 RES     
   17401 H6        -228.4770   -66.7110   157.0820 H6            1 RES     
   17402 H6        -229.6004   -65.6334   157.9750 H6            1 RES     
   17403 H6        -226.5639   -65.2185   157.4279 H6            1 RES     
   17404 H6        -227.2667   -65.8434   158.9593 H6            1 RES     
   17405 H6        -226.6359   -63.4666   159.1635 H6            1 RES     
   17406 H6        -228.3999   -63.7402   159.3668 H6            1 RES     
   17407 H6        -227.7637   -63.0133   157.8327 H6            1 RES     
   17408 H6        -231.6564   -68.4702   154.6337 H6            1 RES     
   17409 H6        -232.6554   -68.1801   153.1593 H6            1 RES     
   17410 H6        -231.0575   -67.0067   151.9660 H6            1 RES     
   17411 H6        -229.7578   -67.2190   153.1057 H6            1 RES     
   17412 H6        -229.6126   -68.3844   151.1055 H6            1 RES     
   17413 H6        -230.9287   -69.5129   151.4630 H6            1 RES     
   17414 H6        -229.4555   -70.6314   153.1656 H6            1 RES     
   17415 H6        -228.3615   -69.1986   153.2361 H6            1 RES     
   17416 H6        -227.6528   -69.4162   150.9390 H6            1 RES     
   17417 H6        -228.6891   -70.8659   150.6640 H6            1 RES     
   17418 H6        -227.2575   -72.1969   152.1753 H6            1 RES     
   17419 H6        -226.2982   -70.7311   152.6292 H6            1 RES     
   17420 H6        -225.5654   -70.4001   150.2840 H6            1 RES     
   17421 H6        -226.5375   -71.8162   149.7373 H6            1 RES     
   17422 H6        -225.1140   -73.3386   151.0944 H6            1 RES     
   17423 H6        -224.1433   -71.9226   151.6835 H6            1 RES     
   17424 H6        -224.1372   -72.3640   149.9373 H6            1 RES     
   17425 C0        -241.8565   -57.0248   152.4982 C0            1 RES     
   17426 C1        -242.9944   -57.7291   152.2191 C1            1 RES     
   17427 C1        -243.5331   -58.3273   153.3002 C1            1 RES     
   17428 C1        -242.8058   -58.1459   154.3578 C1            1 RES     
   17429 C1        -241.6107   -57.3503   154.0270 C1            1 RES     
   17430 C1        -240.6241   -58.4598   154.3588 C1            1 RES     
   17431 C1        -241.0843   -59.4948   155.1203 C1            1 RES     
   17432 S2        -242.7810   -59.2338   155.7395 S2            1 RES     
   17433 C1        -240.2892   -60.7683   155.3770 C1            1 RES     
   17434 C1        -238.8864   -60.8285   155.1275 C1            1 RES     
   17435 N3        -238.1705   -61.9722   155.3314 N3            1 RES     
   17436 C1        -238.7355   -63.1234   155.7591 C1            1 RES     
   17437 C1        -240.1030   -63.1488   156.0030 C1            1 RES     
   17438 C1        -240.8853   -61.9680   155.8204 C1            1 RES     
   17439 N3        -242.2143   -62.1224   156.0798 N3            1 RES     
   17440 S2        -242.3197   -63.7145   156.5253 S2            1 RES     
   17441 N3        -240.7648   -64.2593   156.4102 N3            1 RES     
   17442 S2        -244.8526   -59.2945   152.9469 S2            1 RES     
   17443 C1        -244.7655   -58.9318   151.2952 C1            1 RES     
   17444 C1        -243.6705   -58.0963   151.0435 C1            1 RES     
   17445 C0        -242.1690   -55.4888   152.1556 C0            1 RES     
   17446 C0        -243.3526   -54.4634   151.7781 C0            1 RES     
   17447 C0        -244.2806   -54.8834   150.5948 C0            1 RES     
   17448 C0        -245.7536   -54.9552   151.0398 C0            1 RES     
   17449 C0        -246.7046   -55.5423   149.9813 C0            1 RES     
   17450 C0        -248.1553   -55.4583   150.4933 C0            1 RES     
   17451 C0        -249.1523   -56.1999   149.5940 C0            1 RES     
   17452 C0        -250.5768   -56.0505   150.1332 C0            1 RES     
   17453 C0        -242.6072   -53.0980   151.4337 C0            1 RES     
   17454 C0        -243.2619   -51.7537   150.9855 C0            1 RES     
   17455 C0        -243.6122   -51.5899   149.4746 C0            1 RES     
   17456 C0        -243.5467   -50.0961   149.0307 C0            1 RES     
   17457 C0        -243.7821   -49.8876   147.5202 C0            1 RES     
   17458 C0        -243.2382   -48.5422   146.9729 C0            1 RES     
   17459 C0        -243.8123   -47.2776   147.6284 C0            1 RES     
   17460 C0        -243.2316   -46.0173   146.9726 C0            1 RES     
   17461 C0        -240.6479   -57.3444   151.4931 C0            1 RES     
   17462 C0        -239.2215   -56.5472   151.3652 C0            1 RES     
   17463 C0        -239.3927   -55.0246   150.9735 C0            1 RES     
   17464 C0        -238.1753   -54.2343   150.5045 C0            1 RES     
   17465 C0        -238.4667   -52.8132   149.9898 C0            1 RES     
   17466 C0        -238.8269   -51.8228   151.1166 C0            1 RES     
   17467 C0        -238.6056   -50.3584   150.6968 C0            1 RES     
   17468 C0        -239.5469   -49.8831   149.6036 C0            1 RES     
   17469 C0        -238.0700   -56.7940   152.4431 C0            1 RES     
   17470 C0        -236.6367   -56.7097   151.7931 C0            1 RES     
   17471 C0        -235.3207   -57.0651   152.5383 C0            1 RES     
   17472 C0        -234.5944   -55.9579   153.3705 C0            1 RES     
   17473 C0        -233.0554   -56.2001   153.2808 C0            1 RES     
   17474 C0        -232.1332   -55.2018   154.0137 C0            1 RES     
   17475 C0        -230.6654   -55.4602   153.5899 C0            1 RES     
   17476 C0        -229.6549   -54.5631   154.3032 C0            1 RES     
   17477 H4        -239.6520   -58.4732   153.9403 H4            1 RES     
   17478 H5        -238.3459   -59.9593   154.7897 H5            1 RES     
   17479 H4        -243.3864   -57.8081   150.0439 H4            1 RES     
   17480 H6        -241.6344   -54.9581   152.9723 H6            1 RES     
   17481 H6        -241.7302   -55.3565   151.1872 H6            1 RES     
   17482 H6        -243.9737   -54.2893   152.6841 H6            1 RES     
   17483 H6        -244.2063   -54.1859   149.7414 H6            1 RES     
   17484 H6        -243.9467   -55.8171   150.1575 H6            1 RES     
   17485 H6        -245.8282   -55.6007   151.9425 H6            1 RES     
   17486 H6        -246.0790   -53.9254   151.3064 H6            1 RES     
   17487 H6        -246.6247   -54.9893   149.0195 H6            1 RES     
   17488 H6        -246.4234   -56.6044   149.8069 H6            1 RES     
   17489 H6        -248.4436   -54.3855   150.5642 H6            1 RES     
   17490 H6        -248.2148   -55.9094   151.5079 H6            1 RES     
   17491 H6        -249.1155   -55.8009   148.5577 H6            1 RES     
   17492 H6        -248.8901   -57.2805   149.5724 H6            1 RES     
   17493 H6        -250.6427   -56.4344   151.1743 H6            1 RES     
   17494 H6        -250.8815   -54.9819   150.1243 H6            1 RES     
   17495 H6        -251.2853   -56.6256   149.5008 H6            1 RES     
   17496 H6        -242.0645   -52.8416   152.3700 H6            1 RES     
   17497 H6        -241.8310   -53.2899   150.6596 H6            1 RES     
   17498 H6        -244.0862   -51.4261   151.6505 H6            1 RES     
   17499 H6        -242.4277   -51.0340   151.1448 H6            1 RES     
   17500 H6        -242.8352   -52.1133   148.8728 H6            1 RES     
   17501 H6        -244.6012   -52.0356   149.2443 H6            1 RES     
   17502 H6        -244.2495   -49.4644   149.6139 H6            1 RES     
   17503 H6        -242.5261   -49.7398   149.2363 H6            1 RES     
   17504 H6        -243.2273   -50.6700   146.9574 H6            1 RES     
   17505 H6        -244.8632   -50.0041   147.2937 H6            1 RES     
   17506 H6        -243.4533   -48.5069   145.8819 H6            1 RES     
   17507 H6        -242.1322   -48.5277   147.0978 H6            1 RES     
   17508 H6        -243.5495   -47.2629   148.7073 H6            1 RES     
   17509 H6        -244.9166   -47.2610   147.5207 H6            1 RES     
   17510 H6        -243.5001   -45.9794   145.8946 H6            1 RES     
   17511 H6        -242.1239   -45.9982   147.0647 H6            1 RES     
   17512 H6        -243.6384   -45.1090   147.4658 H6            1 RES     
   17513 H6        -240.4032   -58.4227   151.6121 H6            1 RES     
   17514 H6        -241.0713   -57.2730   150.4651 H6            1 RES     
   17515 H6        -238.8204   -57.0425   150.4545 H6            1 RES     
   17516 H6        -239.8090   -54.4615   151.8301 H6            1 RES     
   17517 H6        -240.0618   -54.9975   150.0870 H6            1 RES     
   17518 H6        -237.4763   -54.0893   151.3470 H6            1 RES     
   17519 H6        -237.7135   -54.8042   149.6694 H6            1 RES     
   17520 H6        -237.5072   -52.4699   149.5480 H6            1 RES     
   17521 H6        -239.2322   -52.8153   149.1821 H6            1 RES     
   17522 H6        -238.1300   -51.9874   151.9654 H6            1 RES     
   17523 H6        -239.8598   -51.9925   151.4872 H6            1 RES     
   17524 H6        -237.5556   -50.2325   150.3538 H6            1 RES     
   17525 H6        -238.7549   -49.7058   151.5841 H6            1 RES     
   17526 H6        -239.3157   -48.8267   149.3477 H6            1 RES     
   17527 H6        -240.5721   -49.9348   149.9969 H6            1 RES     
   17528 H6        -239.4552   -50.4967   148.6841 H6            1 RES     
   17529 H6        -238.2024   -56.1476   153.3383 H6            1 RES     
   17530 H6        -238.1036   -57.8513   152.7521 H6            1 RES     
   17531 H6        -236.6882   -57.4502   150.9660 H6            1 RES     
   17532 H6        -236.4004   -55.7674   151.3102 H6            1 RES     
   17533 H6        -234.6431   -57.2376   151.6719 H6            1 RES     
   17534 H6        -235.3658   -58.0335   153.0782 H6            1 RES     
   17535 H6        -234.9675   -55.9436   154.4175 H6            1 RES     
   17536 H6        -234.7746   -54.9580   152.9188 H6            1 RES     
   17537 H6        -232.7911   -56.1316   152.2012 H6            1 RES     
   17538 H6        -232.8121   -57.2249   153.6348 H6            1 RES     
   17539 H6        -232.2473   -55.3266   155.1121 H6            1 RES     
   17540 H6        -232.3957   -54.1570   153.7392 H6            1 RES     
   17541 H6        -230.5681   -55.2794   152.4954 H6            1 RES     
   17542 H6        -230.3901   -56.5177   153.7932 H6            1 RES     
   17543 H6        -229.6660   -54.7587   155.3955 H6            1 RES     
   17544 H6        -229.8709   -53.4912   154.1126 H6            1 RES     
   17545 H6        -228.6334   -54.7858   153.9203 H6            1 RES     
   17546 C0        -248.2414   -63.2801   143.9605 C0            1 RES     
   17547 C1        -248.6058   -64.3532   144.7250 C1            1 RES     
   17548 C1        -249.4243   -64.0305   145.7461 C1            1 RES     
   17549 C1        -249.6313   -62.7522   145.8059 C1            1 RES     
   17550 C1        -248.8867   -62.0624   144.7379 C1            1 RES     
   17551 C1        -247.9916   -61.2837   145.6901 C1            1 RES     
   17552 C1        -248.3983   -61.1890   146.9896 C1            1 RES     
   17553 S2        -250.0597   -61.8875   147.2763 S2            1 RES     
   17554 C1        -247.5304   -60.6166   148.1027 C1            1 RES     
   17555 C1        -246.3751   -59.8328   147.8121 C1            1 RES     
   17556 N3        -245.5780   -59.3364   148.8023 N3            1 RES     
   17557 C1        -245.8105   -59.5664   150.1140 C1            1 RES     
   17558 C1        -246.9062   -60.3405   150.4749 C1            1 RES     
   17559 C1        -247.7763   -60.8629   149.4701 C1            1 RES     
   17560 N3        -248.8072   -61.6156   149.9480 N3            1 RES     
   17561 S2        -248.5668   -61.5707   151.5866 S2            1 RES     
   17562 N3        -247.2088   -60.6468   151.7600 N3            1 RES     
   17563 S2        -249.7731   -65.3147   146.7612 S2            1 RES     
   17564 C1        -248.8336   -66.3853   145.8456 C1            1 RES     
   17565 C1        -248.2222   -65.7034   144.7864 C1            1 RES     
   17566 C0        -248.8162   -63.5475   142.4865 C0            1 RES     
   17567 C0        -249.7899   -64.5054   141.6328 C0            1 RES     
   17568 C0        -249.5582   -66.0417   141.7870 C0            1 RES     
   17569 C0        -250.8338   -66.7514   142.2790 C0            1 RES     
   17570 C0        -250.6331   -68.2357   142.6342 C0            1 RES     
   17571 C0        -251.9916   -68.8627   143.0016 C0            1 RES     
   17572 C0        -251.8636   -70.2847   143.5619 C0            1 RES     
   17573 C0        -253.2446   -70.8660   143.8736 C0            1 RES     
   17574 C0        -249.5614   -64.0647   140.1188 C0            1 RES     
   17575 C0        -250.2400   -64.6676   138.8488 C0            1 RES     
   17576 C0        -249.6190   -65.9650   138.2459 C0            1 RES     
   17577 C0        -249.8519   -66.0487   136.7059 C0            1 RES     
   17578 C0        -249.1674   -67.2608   136.0406 C0            1 RES     
   17579 C0        -248.9480   -67.1062   134.5130 C0            1 RES     
   17580 C0        -250.2172   -66.8775   133.6793 C0            1 RES     
   17581 C0        -249.8742   -66.7855   132.1862 C0            1 RES     
   17582 C0        -246.6629   -63.2011   143.6863 C0            1 RES     
   17583 C0        -245.8817   -62.2069   142.6433 C0            1 RES     
   17584 C0        -246.3227   -62.4132   141.1387 C0            1 RES     
   17585 C0        -245.4760   -61.8073   140.0241 C0            1 RES     
   17586 C0        -245.8880   -62.1970   138.5930 C0            1 RES     
   17587 C0        -247.1957   -61.5193   138.1335 C0            1 RES     
   17588 C0        -247.3237   -61.4818   136.5999 C0            1 RES     
   17589 C0        -247.4866   -62.8510   135.9628 C0            1 RES     
   17590 C0        -245.6468   -60.6748   143.0256 C0            1 RES     
   17591 C0        -244.2779   -60.1370   142.4592 C0            1 RES     
   17592 C0        -243.6840   -58.7418   142.7972 C0            1 RES     
   17593 C0        -244.0948   -57.5087   141.9273 C0            1 RES     
   17594 C0        -242.8752   -56.5398   141.8338 C0            1 RES     
   17595 C0        -243.0480   -55.2557   140.9939 C0            1 RES     
   17596 C0        -241.6673   -54.5760   140.8141 C0            1 RES     
   17597 C0        -241.7293   -53.2575   140.0443 C0            1 RES     
   17598 H4        -247.0508   -60.9119   145.3786 H4            1 RES     
   17599 H5        -246.1108   -59.5910   146.7955 H5            1 RES     
   17600 H4        -247.5172   -66.1829   144.1261 H4            1 RES     
   17601 H6        -249.1389   -62.5302   142.1780 H6            1 RES     
   17602 H6        -247.9647   -63.9174   141.9517 H6            1 RES     
   17603 H6        -250.8435   -64.2675   141.8979 H6            1 RES     
   17604 H6        -249.2404   -66.5108   140.8386 H6            1 RES     
   17605 H6        -248.7125   -66.2396   142.4353 H6            1 RES     
   17606 H6        -251.2012   -66.2410   143.1964 H6            1 RES     
   17607 H6        -251.6044   -66.6573   141.4822 H6            1 RES     
   17608 H6        -250.1916   -68.7961   141.7807 H6            1 RES     
   17609 H6        -249.9380   -68.2987   143.5005 H6            1 RES     
   17610 H6        -252.6321   -68.8769   142.0913 H6            1 RES     
   17611 H6        -252.4887   -68.2378   143.7754 H6            1 RES     
   17612 H6        -251.3498   -70.9473   142.8330 H6            1 RES     
   17613 H6        -251.2687   -70.2544   144.5012 H6            1 RES     
   17614 H6        -253.7873   -70.2183   144.5958 H6            1 RES     
   17615 H6        -253.8462   -70.9490   142.9429 H6            1 RES     
   17616 H6        -253.1400   -71.8779   144.3184 H6            1 RES     
   17617 H6        -249.8507   -62.9909   140.1024 H6            1 RES     
   17618 H6        -248.4738   -64.1038   139.8864 H6            1 RES     
   17619 H6        -251.3444   -64.7224   138.9278 H6            1 RES     
   17620 H6        -250.0200   -63.8878   138.0855 H6            1 RES     
   17621 H6        -248.5141   -65.9225   138.3777 H6            1 RES     
   17622 H6        -250.0046   -66.8680   138.7613 H6            1 RES     
   17623 H6        -250.9334   -66.0397   136.4543 H6            1 RES     
   17624 H6        -249.3962   -65.1526   136.2585 H6            1 RES     
   17625 H6        -248.1463   -67.3764   136.4655 H6            1 RES     
   17626 H6        -249.7410   -68.1835   136.2712 H6            1 RES     
   17627 H6        -248.4426   -68.0273   134.1470 H6            1 RES     
   17628 H6        -248.2570   -66.2514   134.3370 H6            1 RES     
   17629 H6        -250.7004   -65.9259   133.9862 H6            1 RES     
   17630 H6        -250.9291   -67.7150   133.8323 H6            1 RES     
   17631 H6        -249.4150   -67.7339   131.8322 H6            1 RES     
   17632 H6        -249.1636   -65.9523   131.9943 H6            1 RES     
   17633 H6        -250.7957   -66.6014   131.5939 H6            1 RES     
   17634 H6        -246.1673   -63.0824   144.6747 H6            1 RES     
   17635 H6        -246.3549   -64.2166   143.3473 H6            1 RES     
   17636 H6        -244.8606   -62.6405   142.7132 H6            1 RES     
   17637 H6        -247.3463   -62.0203   140.9905 H6            1 RES     
   17638 H6        -246.2569   -63.5034   140.9345 H6            1 RES     
   17639 H6        -245.5574   -60.7063   140.0490 H6            1 RES     
   17640 H6        -244.4312   -62.1544   140.1773 H6            1 RES     
   17641 H6        -245.0734   -61.8058   137.9475 H6            1 RES     
   17642 H6        -245.9271   -63.3012   138.4608 H6            1 RES     
   17643 H6        -247.1683   -60.4540   138.4462 H6            1 RES     
   17644 H6        -248.0820   -61.9901   138.6085 H6            1 RES     
   17645 H6        -246.4261   -60.9850   136.1715 H6            1 RES     
   17646 H6        -248.2126   -60.8713   136.3303 H6            1 RES     
   17647 H6        -247.5577   -62.7412   134.8593 H6            1 RES     
   17648 H6        -248.4250   -63.2856   136.3355 H6            1 RES     
   17649 H6        -246.6327   -63.5194   136.1962 H6            1 RES     
   17650 H6        -246.5263   -60.0477   142.7613 H6            1 RES     
   17651 H6        -245.4698   -60.6105   144.1114 H6            1 RES     
   17652 H6        -243.5338   -60.8544   142.8678 H6            1 RES     
   17653 H6        -244.1642   -60.1995   141.3822 H6            1 RES     
   17654 H6        -242.6159   -58.9123   142.5336 H6            1 RES     
   17655 H6        -243.6894   -58.5098   143.8823 H6            1 RES     
   17656 H6        -245.0027   -57.0190   142.3419 H6            1 RES     
   17657 H6        -244.3126   -57.8295   140.8853 H6            1 RES     
   17658 H6        -242.0539   -57.1175   141.3521 H6            1 RES     
   17659 H6        -242.5442   -56.2481   142.8537 H6            1 RES     
   17660 H6        -243.7551   -54.5680   141.5060 H6            1 RES     
   17661 H6        -243.4485   -55.5016   139.9864 H6            1 RES     
   17662 H6        -240.9952   -55.2655   140.2549 H6            1 RES     
   17663 H6        -241.2097   -54.3736   141.8066 H6            1 RES     
   17664 H6        -242.3344   -52.5119   140.6004 H6            1 RES     
   17665 H6        -242.1586   -53.4081   139.0320 H6            1 RES     
   17666 H6        -240.6986   -52.8525   139.9286 H6            1 RES     
   17667 C0        -245.1631   -74.5545   147.9857 C0            1 RES     
   17668 C1        -245.4907   -74.3962   149.3034 C1            1 RES     
   17669 C1        -246.8076   -74.1941   149.5077 C1            1 RES     
   17670 C1        -247.4602   -74.1343   148.3893 C1            1 RES     
   17671 C1        -246.5396   -74.2940   147.2501 C1            1 RES     
   17672 C1        -246.7849   -72.9000   146.6925 C1            1 RES     
   17673 C1        -247.9006   -72.2437   147.1256 C1            1 RES     
   17674 S2        -248.9798   -73.2748   148.1757 S2            1 RES     
   17675 C1        -248.1875   -70.7798   146.8182 C1            1 RES     
   17676 C1        -247.4910   -70.0905   145.7821 C1            1 RES     
   17677 N3        -247.7241   -68.7725   145.5159 N3            1 RES     
   17678 C1        -248.6058   -68.0279   146.2198 C1            1 RES     
   17679 C1        -249.3072   -68.6248   147.2599 C1            1 RES     
   17680 C1        -249.1067   -70.0069   147.5588 C1            1 RES     
   17681 N3        -249.8424   -70.4729   148.6072 N3            1 RES     
   17682 S2        -250.6954   -69.1344   149.0820 S2            1 RES     
   17683 N3        -250.1934   -67.9571   148.0382 N3            1 RES     
   17684 S2        -247.2000   -73.8732   151.1028 S2            1 RES     
   17685 C1        -245.5874   -74.0103   151.6009 C1            1 RES     
   17686 C1        -244.7624   -74.2568   150.4967 C1            1 RES     
   17687 C0        -244.5627   -76.0347   147.8342 C0            1 RES     
   17688 C0        -244.3666   -77.4353   148.6051 C0            1 RES     
   17689 C0        -243.7327   -77.3580   150.0298 C0            1 RES     
   17690 C0        -244.6640   -77.9777   151.0889 C0            1 RES     
   17691 C0        -244.1941   -77.7722   152.5403 C0            1 RES     
   17692 C0        -245.1374   -78.5275   153.4959 C0            1 RES     
   17693 C0        -244.8671   -78.2183   154.9737 C0            1 RES     
   17694 C0        -245.8088   -79.0232   155.8723 C0            1 RES     
   17695 C0        -243.4414   -78.3004   147.6385 C0            1 RES     
   17696 C0        -242.9148   -79.7490   147.8852 C0            1 RES     
   17697 C0        -241.6329   -79.9120   148.7584 C0            1 RES     
   17698 C0        -240.8208   -81.1800   148.3516 C0            1 RES     
   17699 C0        -239.4877   -81.3329   149.1131 C0            1 RES     
   17700 C0        -238.4551   -82.2498   148.4071 C0            1 RES     
   17701 C0        -238.9152   -83.6915   148.1469 C0            1 RES     
   17702 C0        -237.7943   -84.5064   147.4873 C0            1 RES     
   17703 C0        -243.9212   -73.6495   147.5257 C0            1 RES     
   17704 C0        -243.1026   -73.7280   146.1079 C0            1 RES     
   17705 C0        -242.4123   -75.1299   145.8649 C0            1 RES     
   17706 C0        -241.3609   -75.2628   144.7679 C0            1 RES     
   17707 C0        -240.6280   -76.6153   144.7136 C0            1 RES     
   17708 C0        -241.5099   -77.7609   144.1751 C0            1 RES     
   17709 C0        -240.6731   -78.9368   143.6393 C0            1 RES     
   17710 C0        -239.8916   -79.6746   144.7126 C0            1 RES     
   17711 C0        -243.7377   -73.1014   144.7840 C0            1 RES     
   17712 C0        -242.6322   -72.4917   143.8405 C0            1 RES     
   17713 C0        -242.9389   -71.6659   142.5608 C0            1 RES     
   17714 C0        -243.1475   -72.4147   141.2037 C0            1 RES     
   17715 C0        -242.5952   -71.5173   140.0526 C0            1 RES     
   17716 C0        -242.6746   -72.0739   138.6146 C0            1 RES     
   17717 C0        -241.8502   -71.1630   137.6705 C0            1 RES     
   17718 C0        -241.9078   -71.5888   136.2042 C0            1 RES     
   17719 H4        -246.0737   -72.4254   146.0686 H4            1 RES     
   17720 H5        -246.7724   -70.6015   145.1624 H5            1 RES     
   17721 H4        -243.6882   -74.3001   150.5814 H4            1 RES     
   17722 H6        -244.9742   -76.3498   146.8515 H6            1 RES     
   17723 H6        -243.5035   -75.8737   147.8336 H6            1 RES     
   17724 H6        -245.3531   -77.9445   148.6724 H6            1 RES     
   17725 H6        -242.7563   -77.8726   150.0782 H6            1 RES     
   17726 H6        -243.4662   -76.3370   150.2769 H6            1 RES     
   17727 H6        -245.6713   -77.5143   151.0010 H6            1 RES     
   17728 H6        -244.7488   -79.0657   150.8726 H6            1 RES     
   17729 H6        -243.1558   -78.1452   152.6823 H6            1 RES     
   17730 H6        -244.2162   -76.6830   152.7657 H6            1 RES     
   17731 H6        -245.0217   -79.6200   153.3163 H6            1 RES     
   17732 H6        -246.1895   -78.2416   153.2776 H6            1 RES     
   17733 H6        -243.8169   -78.4655   155.2389 H6            1 RES     
   17734 H6        -245.0382   -77.1347   155.1567 H6            1 RES     
   17735 H6        -246.8695   -78.8026   155.6238 H6            1 RES     
   17736 H6        -245.6281   -80.1119   155.7419 H6            1 RES     
   17737 H6        -245.6352   -78.7610   156.9372 H6            1 RES     
   17738 H6        -244.0294   -78.3773   146.6976 H6            1 RES     
   17739 H6        -242.5245   -77.7194   147.3929 H6            1 RES     
   17740 H6        -243.7148   -80.4626   148.1679 H6            1 RES     
   17741 H6        -242.5808   -80.0430   146.8648 H6            1 RES     
   17742 H6        -240.9573   -79.0496   148.5591 H6            1 RES     
   17743 H6        -241.8853   -79.9245   149.8381 H6            1 RES     
   17744 H6        -241.4257   -82.1052   148.4581 H6            1 RES     
   17745 H6        -240.5586   -81.0716   147.2885 H6            1 RES     
   17746 H6        -238.9920   -80.3394   149.1754 H6            1 RES     
   17747 H6        -239.6897   -81.6806   150.1485 H6            1 RES     
   17748 H6        -237.5379   -82.2767   149.0363 H6            1 RES     
   17749 H6        -238.1795   -81.7907   147.4312 H6            1 RES     
   17750 H6        -239.7919   -83.6875   147.4652 H6            1 RES     
   17751 H6        -239.1977   -84.1793   149.1028 H6            1 RES     
   17752 H6        -236.9067   -84.5601   148.1543 H6            1 RES     
   17753 H6        -237.4874   -84.0477   146.5222 H6            1 RES     
   17754 H6        -238.1431   -85.5416   147.2862 H6            1 RES     
   17755 H6        -244.2245   -72.5883   147.6627 H6            1 RES     
   17756 H6        -243.1237   -73.8054   148.2879 H6            1 RES     
   17757 H6        -242.2720   -73.0271   146.3415 H6            1 RES     
   17758 H6        -243.1817   -75.8933   145.6424 H6            1 RES     
   17759 H6        -241.8392   -75.3664   146.7869 H6            1 RES     
   17760 H6        -241.8390   -75.1633   143.7775 H6            1 RES     
   17761 H6        -240.5968   -74.4754   144.9460 H6            1 RES     
   17762 H6        -239.8073   -76.4633   143.9810 H6            1 RES     
   17763 H6        -240.1670   -76.8749   145.6926 H6            1 RES     
   17764 H6        -242.0753   -77.3859   143.2958 H6            1 RES     
   17765 H6        -242.2469   -78.0940   144.9360 H6            1 RES     
   17766 H6        -239.9666   -78.5595   142.8684 H6            1 RES     
   17767 H6        -241.3541   -79.6663   143.1499 H6            1 RES     
   17768 H6        -239.3054   -80.4958   144.2470 H6            1 RES     
   17769 H6        -240.6156   -80.1119   145.4148 H6            1 RES     
   17770 H6        -239.1915   -79.0022   145.2495 H6            1 RES     
   17771 H6        -244.4215   -73.8186   144.2794 H6            1 RES     
   17772 H6        -244.3033   -72.1979   145.0636 H6            1 RES     
   17773 H6        -242.0982   -71.7767   144.5029 H6            1 RES     
   17774 H6        -241.8696   -73.1880   143.5083 H6            1 RES     
   17775 H6        -241.9681   -71.1372   142.4292 H6            1 RES     
   17776 H6        -243.6934   -70.8678   142.7196 H6            1 RES     
   17777 H6        -244.2165   -72.6852   141.0632 H6            1 RES     
   17778 H6        -242.5426   -73.3473   141.1829 H6            1 RES     
   17779 H6        -241.5130   -71.3654   140.2673 H6            1 RES     
   17780 H6        -243.0966   -70.5258   140.0716 H6            1 RES     
   17781 H6        -243.7362   -72.1115   138.2878 H6            1 RES     
   17782 H6        -242.2462   -73.0988   138.5706 H6            1 RES     
   17783 H6        -240.7835   -71.1833   137.9893 H6            1 RES     
   17784 H6        -242.2134   -70.1147   137.7387 H6            1 RES     
   17785 H6        -242.9465   -71.5173   135.8201 H6            1 RES     
   17786 H6        -241.5317   -72.6251   136.0761 H6            1 RES     
   17787 H6        -241.2660   -70.9084   135.6000 H6            1 RES     
   17788 C0        -241.3221   -70.9746   159.1758 C0            1 RES     
   17789 C1        -242.4171   -70.2427   159.5419 C1            1 RES     
   17790 C1        -243.5370   -70.9815   159.6703 C1            1 RES     
   17791 C1        -243.3296   -72.2213   159.3536 C1            1 RES     
   17792 C1        -241.9291   -72.4166   158.9398 C1            1 RES     
   17793 C1        -242.2728   -72.8085   157.5106 C1            1 RES     
   17794 C1        -243.5598   -73.1885   157.2616 C1            1 RES     
   17795 S2        -244.5774   -73.3154   158.7712 S2            1 RES     
   17796 C1        -244.1117   -73.4222   155.8614 C1            1 RES     
   17797 C1        -243.2441   -73.5924   154.7424 C1            1 RES     
   17798 N3        -243.7298   -73.7779   153.4807 N3            1 RES     
   17799 C1        -245.0520   -73.7923   153.1996 C1            1 RES     
   17800 C1        -245.9596   -73.6110   154.2357 C1            1 RES     
   17801 C1        -245.4930   -73.4328   155.5737 C1            1 RES     
   17802 N3        -246.4779   -73.2529   156.4985 N3            1 RES     
   17803 S2        -247.8585   -73.3362   155.5867 S2            1 RES     
   17804 N3        -247.3021   -73.5853   154.0517 N3            1 RES     
   17805 S2        -244.9073   -70.0765   159.9936 S2            1 RES     
   17806 C1        -244.0352   -68.6250   159.9909 C1            1 RES     
   17807 C1        -242.6910   -68.8723   159.6866 C1            1 RES     
   17808 C0        -240.2638   -70.8531   160.3757 C0            1 RES     
   17809 C0        -240.0828   -70.3442   161.8932 C0            1 RES     
   17810 C0        -240.5417   -68.8821   162.1919 C0            1 RES     
   17811 C0        -241.6131   -68.8489   163.2982 C0            1 RES     
   17812 C0        -242.2502   -67.4650   163.5184 C0            1 RES     
   17813 C0        -243.2166   -67.5308   164.7165 C0            1 RES     
   17814 C0        -244.0476   -66.2529   164.8872 C0            1 RES     
   17815 C0        -244.9597   -66.3644   166.1111 C0            1 RES     
   17816 C0        -238.5248   -70.5019   162.1873 C0            1 RES     
   17817 C0        -237.7739   -70.1440   163.5081 C0            1 RES     
   17818 C0        -237.3533   -68.6571   163.7190 C0            1 RES     
   17819 C0        -236.0689   -68.5447   164.5968 C0            1 RES     
   17820 C0        -235.5478   -67.1007   164.7506 C0            1 RES     
   17821 C0        -234.0554   -67.0050   165.1616 C0            1 RES     
   17822 C0        -233.6858   -67.6888   166.4859 C0            1 RES     
   17823 C0        -232.1977   -67.4863   166.8025 C0            1 RES     
   17824 C0        -240.5060   -70.3307   157.9541 C0            1 RES     
   17825 C0        -239.0360   -70.7848   157.3890 C0            1 RES     
   17826 C0        -237.8877   -70.6567   158.4688 C0            1 RES     
   17827 C0        -236.4316   -70.7282   158.0204 C0            1 RES     
   17828 C0        -235.3874   -70.4301   159.1114 C0            1 RES     
   17829 C0        -235.2511   -71.5664   160.1461 C0            1 RES     
   17830 C0        -233.9044   -71.5172   160.8903 C0            1 RES     
   17831 C0        -233.7441   -70.3055   161.7920 C0            1 RES     
   17832 C0        -238.8993   -72.0877   156.4767 C0            1 RES     
   17833 C0        -237.7733   -71.9195   155.3869 C0            1 RES     
   17834 C0        -237.5077   -72.9392   154.2452 C0            1 RES     
   17835 C0        -236.5455   -74.1435   154.5090 C0            1 RES     
   17836 C0        -235.7848   -74.4692   153.1860 C0            1 RES     
   17837 C0        -234.7536   -75.6179   153.2211 C0            1 RES     
   17838 C0        -233.9347   -75.6066   151.9058 C0            1 RES     
   17839 C0        -232.9192   -76.7439   151.8068 C0            1 RES     
   17840 H4        -241.5684   -72.7019   156.7278 H4            1 RES     
   17841 H5        -242.1736   -73.6013   154.8675 H5            1 RES     
   17842 H4        -241.9763   -68.0754   159.5560 H4            1 RES     
   17843 H6        -239.8328   -71.8767   160.4060 H6            1 RES     
   17844 H6        -239.5827   -70.1017   160.0305 H6            1 RES     
   17845 H6        -240.6257   -71.0416   162.5686 H6            1 RES     
   17846 H6        -239.6994   -68.2377   162.5010 H6            1 RES     
   17847 H6        -240.8834   -68.3941   161.2865 H6            1 RES     
   17848 H6        -242.4341   -69.5492   163.0284 H6            1 RES     
   17849 H6        -241.1387   -69.1978   164.2420 H6            1 RES     
   17850 H6        -241.4743   -66.6934   163.7177 H6            1 RES     
   17851 H6        -242.8055   -67.1832   162.5966 H6            1 RES     
   17852 H6        -242.6229   -67.7157   165.6398 H6            1 RES     
   17853 H6        -243.9235   -68.3772   164.5739 H6            1 RES     
   17854 H6        -243.3852   -65.3696   165.0106 H6            1 RES     
   17855 H6        -244.6790   -66.1050   163.9837 H6            1 RES     
   17856 H6        -245.6299   -67.2465   166.0200 H6            1 RES     
   17857 H6        -244.3520   -66.4689   167.0357 H6            1 RES     
   17858 H6        -245.5878   -65.4534   166.2020 H6            1 RES     
   17859 H6        -238.3307   -71.5877   162.0453 H6            1 RES     
   17860 H6        -237.9479   -69.9706   161.3978 H6            1 RES     
   17861 H6        -238.2431   -70.5847   164.4107 H6            1 RES     
   17862 H6        -236.8067   -70.6767   163.3675 H6            1 RES     
   17863 H6        -237.0770   -68.2242   162.7310 H6            1 RES     
   17864 H6        -238.1869   -68.0641   164.1470 H6            1 RES     
   17865 H6        -236.2157   -69.0026   165.5978 H6            1 RES     
   17866 H6        -235.2740   -69.1070   164.0843 H6            1 RES     
   17867 H6        -235.6059   -66.5894   163.7648 H6            1 RES     
   17868 H6        -236.1954   -66.5464   165.4628 H6            1 RES     
   17869 H6        -233.7901   -65.9267   165.2314 H6            1 RES     
   17870 H6        -233.4339   -67.4520   164.3535 H6            1 RES     
   17871 H6        -233.8820   -68.7793   166.4118 H6            1 RES     
   17872 H6        -234.2892   -67.2643   167.3149 H6            1 RES     
   17873 H6        -231.9665   -66.4049   166.9153 H6            1 RES     
   17874 H6        -231.5607   -67.9041   165.9926 H6            1 RES     
   17875 H6        -231.9364   -68.0002   167.7519 H6            1 RES     
   17876 H6        -241.1932   -70.3097   157.0799 H6            1 RES     
   17877 H6        -240.3584   -69.2567   158.2104 H6            1 RES     
   17878 H6        -238.8572   -69.9568   156.6691 H6            1 RES     
   17879 H6        -238.0075   -71.4423   159.2387 H6            1 RES     
   17880 H6        -237.9652   -69.6339   158.8958 H6            1 RES     
   17881 H6        -236.1953   -71.7513   157.6786 H6            1 RES     
   17882 H6        -236.2971   -69.9749   157.2142 H6            1 RES     
   17883 H6        -234.4209   -70.3658   158.5681 H6            1 RES     
   17884 H6        -235.5697   -69.4470   159.6000 H6            1 RES     
   17885 H6        -235.2455   -72.5360   159.6047 H6            1 RES     
   17886 H6        -236.1097   -71.5753   160.8502 H6            1 RES     
   17887 H6        -233.0772   -71.5309   160.1477 H6            1 RES     
   17888 H6        -233.8113   -72.4276   161.5212 H6            1 RES     
   17889 H6        -232.7462   -70.3350   162.2801 H6            1 RES     
   17890 H6        -234.5192   -70.3603   162.5696 H6            1 RES     
   17891 H6        -233.8319   -69.3553   161.2265 H6            1 RES     
   17892 H6        -238.8034   -73.0094   157.0916 H6            1 RES     
   17893 H6        -239.7991   -72.1661   155.8453 H6            1 RES     
   17894 H6        -238.0698   -70.9894   154.8558 H6            1 RES     
   17895 H6        -236.7800   -71.7165   155.7728 H6            1 RES     
   17896 H6        -236.9436   -72.2961   153.5328 H6            1 RES     
   17897 H6        -238.4265   -73.2473   153.7046 H6            1 RES     
   17898 H6        -237.1066   -75.0160   154.9087 H6            1 RES     
   17899 H6        -235.7661   -73.8574   155.2486 H6            1 RES     
   17900 H6        -235.2162   -73.5498   152.9185 H6            1 RES     
   17901 H6        -236.5125   -74.6779   152.3724 H6            1 RES     
   17902 H6        -235.2813   -76.5887   153.3411 H6            1 RES     
   17903 H6        -234.0494   -75.4817   154.0705 H6            1 RES     
   17904 H6        -233.3773   -74.6452   151.8355 H6            1 RES     
   17905 H6        -234.6169   -75.6775   151.0312 H6            1 RES     
   17906 H6        -233.4359   -77.7260   151.8024 H6            1 RES     
   17907 H6        -232.1958   -76.7052   152.6476 H6            1 RES     
   17908 H6        -232.3513   -76.6455   150.8541 H6            1 RES     
   17909 C0        -246.8172   -59.9039   158.9953 C0            1 RES     
   17910 C1        -248.0767   -60.3079   158.6499 C1            1 RES     
   17911 C1        -248.6656   -61.0827   159.5824 C1            1 RES     
   17912 C1        -247.8694   -61.3203   160.5774 C1            1 RES     
   17913 C1        -246.5650   -60.6720   160.3555 C1            1 RES     
   17914 C1        -245.7846   -61.9763   160.2910 C1            1 RES     
   17915 C1        -246.3913   -63.0903   160.7949 C1            1 RES     
   17916 S2        -247.9809   -62.7341   161.6175 S2            1 RES     
   17917 C1        -245.8324   -64.4979   160.6333 C1            1 RES     
   17918 C1        -244.4775   -64.7168   160.2460 C1            1 RES     
   17919 N3        -243.9751   -65.9740   160.0751 N3            1 RES     
   17920 C1        -244.7214   -67.0894   160.2378 C1            1 RES     
   17921 C1        -246.0576   -66.9558   160.5941 C1            1 RES     
   17922 C1        -246.6174   -65.6583   160.8013 C1            1 RES     
   17923 N3        -247.9388   -65.6576   161.1351 N3            1 RES     
   17924 S2        -248.3140   -67.2711   161.1562 S2            1 RES     
   17925 N3        -246.8924   -68.0110   160.7568 N3            1 RES     
   17926 S2        -250.1550   -61.6856   159.1141 S2            1 RES     
   17927 C1        -250.0792   -60.9033   157.6142 C1            1 RES     
   17928 C1        -248.8622   -60.2224   157.4882 C1            1 RES     
   17929 C0        -246.8580   -58.3032   159.0976 C0            1 RES     
   17930 C0        -247.8494   -57.0338   159.1146 C0            1 RES     
   17931 C0        -248.8923   -56.9548   157.9555 C0            1 RES     
   17932 C0        -250.3314   -56.9030   158.5026 C0            1 RES     
   17933 C0        -251.4219   -57.0128   157.4217 C0            1 RES     
   17934 C0        -252.8073   -56.8355   158.0719 C0            1 RES     
   17935 C0        -253.9638   -57.1278   157.1078 C0            1 RES     
   17936 C0        -255.3103   -56.9003   157.7988 C0            1 RES     
   17937 C0        -246.8828   -55.7679   159.0711 C0            1 RES     
   17938 C0        -247.2997   -54.2637   159.0540 C0            1 RES     
   17939 C0        -247.6833   -53.6366   157.6786 C0            1 RES     
   17940 C0        -247.3654   -52.1102   157.6369 C0            1 RES     
   17941 C0        -247.6279   -51.4597   156.2628 C0            1 RES     
   17942 C0        -246.8722   -50.1241   156.0381 C0            1 RES     
   17943 C0        -247.1736   -49.0114   157.0526 C0            1 RES     
   17944 C0        -246.4024   -47.7327   156.6979 C0            1 RES     
   17945 C0        -245.7355   -60.1295   157.8325 C0            1 RES     
   17946 C0        -244.1945   -59.5733   157.7842 C0            1 RES     
   17947 C0        -244.1012   -57.9951   157.8225 C0            1 RES     
   17948 C0        -242.7825   -57.3175   157.4644 C0            1 RES     
   17949 C0        -242.8315   -55.7819   157.3692 C0            1 RES     
   17950 C0        -242.9515   -55.0934   158.7447 C0            1 RES     
   17951 C0        -242.4847   -53.6270   158.7040 C0            1 RES     
   17952 C0        -243.3723   -52.7223   157.8668 C0            1 RES     
   17953 C0        -243.0593   -60.2918   158.6466 C0            1 RES     
   17954 C0        -241.6665   -60.2691   157.9095 C0            1 RES     
   17955 C0        -240.4051   -61.0264   158.4085 C0            1 RES     
   17956 C0        -239.4503   -60.3247   159.4293 C0            1 RES     
   17957 C0        -237.9877   -60.7823   159.1351 C0            1 RES     
   17958 C0        -236.8651   -60.1888   160.0136 C0            1 RES     
   17959 C0        -235.4908   -60.5584   159.4008 C0            1 RES     
   17960 C0        -234.3011   -60.0699   160.2258 C0            1 RES     
   17961 H4        -244.8519   -62.0338   159.7941 H4            1 RES     
   17962 H5        -243.8028   -63.8894   160.0981 H5            1 RES     
   17963 H4        -248.5765   -59.7218   156.5766 H4            1 RES     
   17964 H6        -246.1980   -58.1121   159.9706 H6            1 RES     
   17965 H6        -246.4476   -57.9844   158.1607 H6            1 RES     
   17966 H6        -248.3856   -57.0153   160.0889 H6            1 RES     
   17967 H6        -248.7308   -56.0720   157.3112 H6            1 RES     
   17968 H6        -248.7561   -57.7744   157.2596 H6            1 RES     
   17969 H6        -250.4814   -57.7500   159.2078 H6            1 RES     
   17970 H6        -250.4497   -55.9469   159.0589 H6            1 RES     
   17971 H6        -251.2863   -56.2382   156.6350 H6            1 RES     
   17972 H6        -251.3487   -58.0176   156.9497 H6            1 RES     
   17973 H6        -252.8902   -55.7911   158.4479 H6            1 RES     
   17974 H6        -252.9016   -57.5314   158.9340 H6            1 RES     
   17975 H6        -253.9023   -56.4716   156.2133 H6            1 RES     
   17976 H6        -253.9057   -58.1888   156.7795 H6            1 RES     
   17977 H6        -255.3975   -57.5387   158.7046 H6            1 RES     
   17978 H6        -255.4138   -55.8352   158.0986 H6            1 RES     
   17979 H6        -256.1408   -57.1553   157.1075 H6            1 RES     
   17980 H6        -246.2597   -55.8709   159.9865 H6            1 RES     
   17981 H6        -246.1916   -55.8649   158.2043 H6            1 RES     
   17982 H6        -248.0183   -54.0003   159.8561 H6            1 RES     
   17983 H6        -246.3412   -53.7624   159.3169 H6            1 RES     
   17984 H6        -247.0442   -54.0951   156.8904 H6            1 RES     
   17985 H6        -248.7468   -53.8334   157.4337 H6            1 RES     
   17986 H6        -247.9126   -51.5562   158.4286 H6            1 RES     
   17987 H6        -246.2883   -51.9965   157.8317 H6            1 RES     
   17988 H6        -247.2528   -52.1378   155.4652 H6            1 RES     
   17989 H6        -248.7213   -51.3305   156.1163 H6            1 RES     
   17990 H6        -247.1273   -49.7561   155.0195 H6            1 RES     
   17991 H6        -245.7778   -50.3263   156.0578 H6            1 RES     
   17992 H6        -246.8631   -49.3365   158.0681 H6            1 RES     
   17993 H6        -248.2599   -48.7848   157.0574 H6            1 RES     
   17994 H6        -246.7088   -47.3571   155.6976 H6            1 RES     
   17995 H6        -245.3069   -47.9218   156.6872 H6            1 RES     
   17996 H6        -246.6123   -46.9405   157.4477 H6            1 RES     
   17997 H6        -245.6877   -61.2241   157.6416 H6            1 RES     
   17998 H6        -246.1855   -59.7104   156.9036 H6            1 RES     
   17999 H6        -243.9336   -59.8587   156.7420 H6            1 RES     
   18000 H6        -244.3672   -57.6281   158.8318 H6            1 RES     
   18001 H6        -244.7942   -57.6164   157.0410 H6            1 RES     
   18002 H6        -242.0306   -57.5259   158.2458 H6            1 RES     
   18003 H6        -242.4721   -57.7043   156.4696 H6            1 RES     
   18004 H6        -241.8468   -55.4931   156.9445 H6            1 RES     
   18005 H6        -243.6208   -55.4368   156.6649 H6            1 RES     
   18006 H6        -242.2582   -55.5966   159.4514 H6            1 RES     
   18007 H6        -243.9797   -55.1862   159.1534 H6            1 RES     
   18008 H6        -241.4465   -53.5861   158.3087 H6            1 RES     
   18009 H6        -242.4707   -53.2275   159.7411 H6            1 RES     
   18010 H6        -242.9632   -51.6891   157.8757 H6            1 RES     
   18011 H6        -244.3703   -52.7108   158.3274 H6            1 RES     
   18012 H6        -243.4373   -53.0666   156.8144 H6            1 RES     
   18013 H6        -243.0294   -59.9032   159.6881 H6            1 RES     
   18014 H6        -243.2721   -61.3729   158.6698 H6            1 RES     
   18015 H6        -241.8911   -60.7355   156.9261 H6            1 RES     
   18016 H6        -241.2838   -59.2826   157.6701 H6            1 RES     
   18017 H6        -239.8113   -61.0634   157.4675 H6            1 RES     
   18018 H6        -240.6021   -62.0846   158.6779 H6            1 RES     
   18019 H6        -239.7657   -60.5370   160.4739 H6            1 RES     
   18020 H6        -239.4646   -59.2238   159.2741 H6            1 RES     
   18021 H6        -237.7654   -60.4647   158.0911 H6            1 RES     
   18022 H6        -237.9205   -61.8904   159.1840 H6            1 RES     
   18023 H6        -236.9494   -60.5896   161.0467 H6            1 RES     
   18024 H6        -236.9438   -59.0804   160.0480 H6            1 RES     
   18025 H6        -235.4126   -60.1029   158.3877 H6            1 RES     
   18026 H6        -235.4052   -61.6614   159.2934 H6            1 RES     
   18027 H6        -234.2974   -60.5530   161.2248 H6            1 RES     
   18028 H6        -234.3252   -58.9666   160.3435 H6            1 RES     
   18029 H6        -233.3566   -60.3437   159.7036 H6            1 RES     
   18030 C0        -254.6287   -62.4411   149.7578 C0            1 RES     
   18031 C1        -255.1482   -63.6077   150.2456 C1            1 RES     
   18032 C1        -255.8455   -63.4476   151.3878 C1            1 RES     
   18033 C1        -255.8115   -62.2188   151.7993 C1            1 RES     
   18034 C1        -255.0030   -61.3945   150.8839 C1            1 RES     
   18035 C1        -253.9372   -61.0648   151.9182 C1            1 RES     
   18036 C1        -254.2592   -61.2647   153.2294 C1            1 RES     
   18037 S2        -256.0056   -61.7323   153.4782 S2            1 RES     
   18038 C1        -253.2506   -61.1701   154.3668 C1            1 RES     
   18039 C1        -251.9857   -60.5374   154.1841 C1            1 RES     
   18040 N3        -251.0663   -60.4695   155.1902 N3            1 RES     
   18041 C1        -251.2763   -61.0090   156.4118 C1            1 RES     
   18042 C1        -252.4776   -61.6616   156.6590 C1            1 RES     
   18043 C1        -253.4742   -61.7382   155.6389 C1            1 RES     
   18044 N3        -254.6025   -62.4131   155.9979 N3            1 RES     
   18045 S2        -254.2826   -62.8594   157.5610 S2            1 RES     
   18046 N3        -252.7716   -62.2546   157.8416 N3            1 RES     
   18047 S2        -256.3769   -64.8855   152.0595 S2            1 RES     
   18048 C1        -255.6931   -65.8031   150.8114 C1            1 RES     
   18049 C1        -255.0165   -64.9669   149.9151 C1            1 RES     
   18050 C0        -255.3102   -62.1959   148.3260 C0            1 RES     
   18051 C0        -256.4815   -62.7095   147.3468 C0            1 RES     
   18052 C0        -256.5289   -64.2455   147.0711 C0            1 RES     
   18053 C0        -257.8889   -64.8434   147.4779 C0            1 RES     
   18054 C0        -257.9479   -66.3802   147.4117 C0            1 RES     
   18055 C0        -259.3799   -66.8520   147.7283 C0            1 RES     
   18056 C0        -259.4893   -68.3741   147.8823 C0            1 RES     
   18057 C0        -260.9377   -68.7836   148.1594 C0            1 RES     
   18058 C0        -256.2461   -61.9141   145.9864 C0            1 RES     
   18059 C0        -257.0817   -62.0257   144.6726 C0            1 RES     
   18060 C0        -256.7379   -63.1916   143.6955 C0            1 RES     
   18061 C0        -257.0530   -62.8104   142.2163 C0            1 RES     
   18062 C0        -256.6340   -63.8888   141.1956 C0            1 RES     
   18063 C0        -256.4607   -63.3594   139.7481 C0            1 RES     
   18064 C0        -257.7034   -62.7056   139.1265 C0            1 RES     
   18065 C0        -257.4187   -62.2652   137.6841 C0            1 RES     
   18066 C0        -253.0769   -62.5502   149.3666 C0            1 RES     
   18067 C0        -252.1755   -61.4504   148.5515 C0            1 RES     
   18068 C0        -252.7158   -61.1609   147.0937 C0            1 RES     
   18069 C0        -251.8246   -60.4200   146.1020 C0            1 RES     
   18070 C0        -252.3668   -60.3292   144.6642 C0            1 RES     
   18071 C0        -253.5476   -59.3463   144.5231 C0            1 RES     
   18072 C0        -253.7372   -58.8691   143.0719 C0            1 RES     
   18073 C0        -254.1779   -59.9650   142.1169 C0            1 RES     
   18074 C0        -251.6460   -60.1421   149.2976 C0            1 RES     
   18075 C0        -250.2292   -59.7020   148.7656 C0            1 RES     
   18076 C0        -249.3745   -58.5702   149.3995 C0            1 RES     
   18077 C0        -249.5917   -57.0958   148.9253 C0            1 RES     
   18078 C0        -248.2206   -56.3523   148.9743 C0            1 RES     
   18079 C0        -248.1935   -54.8768   148.5199 C0            1 RES     
   18080 C0        -246.7212   -54.4102   148.3953 C0            1 RES     
   18081 C0        -246.5757   -52.9396   148.0067 C0            1 RES     
   18082 H4        -252.9596   -60.7816   151.6278 H4            1 RES     
   18083 H5        -251.7287   -60.0729   153.2461 H5            1 RES     
   18084 H4        -254.4427   -65.3559   149.0889 H4            1 RES     
   18085 H6        -255.4546   -61.0943   148.3263 H6            1 RES     
   18086 H6        -254.5667   -62.5395   147.6354 H6            1 RES     
   18087 H6        -257.4602   -62.3837   147.7629 H6            1 RES     
   18088 H6        -256.3466   -64.4820   146.0075 H6            1 RES     
   18089 H6        -255.7049   -64.7496   147.5625 H6            1 RES     
   18090 H6        -258.1137   -64.5511   148.5273 H6            1 RES     
   18091 H6        -258.6651   -64.4092   146.8097 H6            1 RES     
   18092 H6        -257.6566   -66.7497   146.4038 H6            1 RES     
   18093 H6        -257.2370   -66.7917   148.1620 H6            1 RES     
   18094 H6        -260.0535   -66.5106   146.9104 H6            1 RES     
   18095 H6        -259.7177   -66.3905   148.6819 H6            1 RES     
   18096 H6        -259.1400   -68.8864   146.9604 H6            1 RES     
   18097 H6        -258.8563   -68.7007   148.7365 H6            1 RES     
   18098 H6        -261.3184   -68.2789   149.0737 H6            1 RES     
   18099 H6        -261.5866   -68.5082   147.3003 H6            1 RES     
   18100 H6        -261.0002   -69.8816   148.3120 H6            1 RES     
   18101 H6        -256.3339   -60.8447   146.2789 H6            1 RES     
   18102 H6        -255.1961   -62.0661   145.6507 H6            1 RES     
   18103 H6        -258.1726   -61.9180   144.8380 H6            1 RES     
   18104 H6        -256.7578   -61.1136   144.1228 H6            1 RES     
   18105 H6        -255.6391   -63.3689   143.7293 H6            1 RES     
   18106 H6        -257.2584   -64.1253   143.9905 H6            1 RES     
   18107 H6        -258.1249   -62.5552   142.0787 H6            1 RES     
   18108 H6        -256.4617   -61.9134   141.9782 H6            1 RES     
   18109 H6        -255.6329   -64.2825   141.4774 H6            1 RES     
   18110 H6        -257.3560   -64.7321   141.2295 H6            1 RES     
   18111 H6        -256.1503   -64.2148   139.1079 H6            1 RES     
   18112 H6        -255.6335   -62.6147   139.7377 H6            1 RES     
   18113 H6        -257.9891   -61.8088   139.7158 H6            1 RES     
   18114 H6        -258.5491   -63.4242   139.1212 H6            1 RES     
   18115 H6        -257.1581   -63.1422   137.0526 H6            1 RES     
   18116 H6        -256.5769   -61.5398   137.6510 H6            1 RES     
   18117 H6        -258.3171   -61.7771   137.2501 H6            1 RES     
   18118 H6        -252.5228   -62.7903   150.3005 H6            1 RES     
   18119 H6        -252.9765   -63.4701   148.7462 H6            1 RES     
   18120 H6        -251.2492   -62.0481   148.4091 H6            1 RES     
   18121 H6        -253.6557   -60.5798   147.1505 H6            1 RES     
   18122 H6        -252.8607   -62.1487   146.6061 H6            1 RES     
   18123 H6        -251.7013   -59.3703   146.4218 H6            1 RES     
   18124 H6        -250.8553   -60.9625   146.0601 H6            1 RES     
   18125 H6        -251.5249   -59.9152   144.0699 H6            1 RES     
   18126 H6        -252.6139   -61.3328   144.2518 H6            1 RES     
   18127 H6        -253.3108   -58.4271   145.0997 H6            1 RES     
   18128 H6        -254.4825   -59.7771   144.9396 H6            1 RES     
   18129 H6        -252.7845   -58.4282   142.7060 H6            1 RES     
   18130 H6        -254.5105   -58.0708   143.0563 H6            1 RES     
   18131 H6        -254.2785   -59.5466   141.0924 H6            1 RES     
   18132 H6        -255.1619   -60.3250   142.4494 H6            1 RES     
   18133 H6        -253.4513   -60.8025   142.0859 H6            1 RES     
   18134 H6        -252.4068   -59.3310   149.2906 H6            1 RES     
   18135 H6        -251.4103   -60.4080   150.3408 H6            1 RES     
   18136 H6        -249.6115   -60.6159   148.9002 H6            1 RES     
   18137 H6        -250.1788   -59.4845   147.7040 H6            1 RES     
   18138 H6        -248.3691   -58.8348   149.0012 H6            1 RES     
   18139 H6        -249.2871   -58.6471   150.5031 H6            1 RES     
   18140 H6        -250.3742   -56.5964   149.5371 H6            1 RES     
   18141 H6        -249.9125   -57.0782   147.8609 H6            1 RES     
   18142 H6        -247.5424   -56.9024   148.2832 H6            1 RES     
   18143 H6        -247.7950   -56.4099   149.9992 H6            1 RES     
   18144 H6        -248.7379   -54.2496   149.2583 H6            1 RES     
   18145 H6        -248.6783   -54.7678   147.5254 H6            1 RES     
   18146 H6        -246.2136   -55.0206   147.6145 H6            1 RES     
   18147 H6        -246.1889   -54.5657   149.3585 H6            1 RES     
   18148 H6        -247.0073   -52.2862   148.7930 H6            1 RES     
   18149 H6        -247.0716   -52.7342   147.0353 H6            1 RES     
   18150 H6        -245.4946   -52.6934   147.9046 H6            1 RES     
   18151 C0        -253.4894   -74.7333   150.3838 C0            1 RES     
   18152 C1        -253.7212   -74.8910   151.7218 C1            1 RES     
   18153 C1        -254.9678   -74.5392   152.0948 C1            1 RES     
   18154 C1        -255.6493   -74.0687   151.0975 C1            1 RES     
   18155 C1        -254.8272   -74.0588   149.8749 C1            1 RES     
   18156 C1        -254.8380   -72.5447   149.7272 C1            1 RES     
   18157 C1        -255.7930   -71.8584   150.4200 C1            1 RES     
   18158 S2        -256.9935   -72.9462   151.2602 S2            1 RES     
   18159 C1        -255.8203   -70.3399   150.5348 C1            1 RES     
   18160 C1        -255.0577   -69.5169   149.6545 C1            1 RES     
   18161 N3        -255.0570   -68.1568   149.7656 N3            1 RES     
   18162 C1        -255.7536   -67.4996   150.7196 C1            1 RES     
   18163 C1        -256.5039   -68.2352   151.6285 C1            1 RES     
   18164 C1        -256.5468   -69.6597   151.5350 C1            1 RES     
   18165 N3        -257.3065   -70.2680   152.4892 N3            1 RES     
   18166 S2        -257.8764   -68.9899   153.3758 S2            1 RES     
   18167 N3        -257.2156   -67.6705   152.6341 N3            1 RES     
   18168 S2        -255.2206   -74.6082   153.7479 S2            1 RES     
   18169 C1        -253.6393   -75.1396   154.0388 C1            1 RES     
   18170 C1        -252.9254   -75.2057   152.8361 C1            1 RES     
   18171 C0        -253.1784   -76.1929   149.7944 C0            1 RES     
   18172 C0        -253.2073   -77.7637   150.1499 C0            1 RES     
   18173 C0        -252.5050   -78.1853   151.4791 C0            1 RES     
   18174 C0        -253.4843   -78.9100   152.4217 C0            1 RES     
   18175 C0        -252.9182   -79.1905   153.8255 C0            1 RES     
   18176 C0        -253.9390   -80.0134   154.6344 C0            1 RES     
   18177 C0        -253.5486   -80.1700   156.1094 C0            1 RES     
   18178 C0        -254.5795   -81.0245   156.8505 C0            1 RES     
   18179 C0        -252.5023   -78.4702   148.9080 C0            1 RES     
   18180 C0        -252.2396   -79.9970   148.7163 C0            1 RES     
   18181 C0        -250.9705   -80.6014   149.3918 C0            1 RES     
   18182 C0        -250.4246   -81.8247   148.5929 C0            1 RES     
   18183 C0        -249.1085   -82.3973   149.1589 C0            1 RES     
   18184 C0        -248.2954   -83.2419   148.1437 C0            1 RES     
   18185 C0        -249.0238   -84.4611   147.5596 C0            1 RES     
   18186 C0        -248.1031   -85.2364   146.6074 C0            1 RES     
   18187 C0        -252.1250   -73.9536   150.0621 C0            1 RES     
   18188 C0        -251.4011   -73.7735   148.6026 C0            1 RES     
   18189 C0        -250.9918   -75.1486   147.9374 C0            1 RES     
   18190 C0        -250.0343   -75.1463   146.7500 C0            1 RES     
   18191 C0        -249.5654   -76.5333   146.2749 C0            1 RES     
   18192 C0        -250.6665   -77.3263   145.5408 C0            1 RES     
   18193 C0        -250.0854   -78.4310   144.6397 C0            1 RES     
   18194 C0        -249.4038   -79.5527   145.4040 C0            1 RES     
   18195 C0        -251.9708   -72.7125   147.5547 C0            1 RES     
   18196 C0        -250.8170   -72.0575   146.7041 C0            1 RES     
   18197 C0        -251.0256   -70.8737   145.7198 C0            1 RES     
   18198 C0        -251.4304   -71.1767   144.2399 C0            1 RES     
   18199 C0        -250.7765   -70.1015   143.3171 C0            1 RES     
   18200 C0        -251.0230   -70.2215   141.7976 C0            1 RES     
   18201 C0        -250.0899   -69.2347   141.0516 C0            1 RES     
   18202 C0        -250.2923   -69.2266   139.5371 C0            1 RES     
   18203 H4        -254.0813   -72.0407   149.1853 H4            1 RES     
   18204 H5        -254.4744   -69.9492   148.8579 H5            1 RES     
   18205 H4        -251.8746   -75.4464   152.8050 H4            1 RES     
   18206 H6        -253.6857   -76.1544   148.8067 H6            1 RES     
   18207 H6        -252.1089   -76.2141   149.7364 H6            1 RES     
   18208 H6        -254.2664   -78.1027   150.1741 H6            1 RES     
   18209 H6        -251.6385   -78.8464   151.2990 H6            1 RES     
   18210 H6        -252.0445   -77.3293   151.9585 H6            1 RES     
   18211 H6        -254.3924   -78.2814   152.5534 H6            1 RES     
   18212 H6        -253.7772   -79.8676   151.9372 H6            1 RES     
   18213 H6        -251.9606   -79.7533   153.7666 H6            1 RES     
   18214 H6        -252.7296   -78.2167   154.3292 H6            1 RES     
   18215 H6        -254.0342   -81.0183   154.1651 H6            1 RES     
   18216 H6        -254.9297   -79.5098   154.5985 H6            1 RES     
   18217 H6        -252.5505   -80.6495   156.2007 H6            1 RES     
   18218 H6        -253.5094   -79.1654   156.5849 H6            1 RES     
   18219 H6        -255.5922   -80.5732   156.7692 H6            1 RES     
   18220 H6        -254.6079   -82.0501   156.4233 H6            1 RES     
   18221 H6        -254.3119   -81.0967   157.9256 H6            1 RES     
   18222 H6        -253.1372   -78.1885   148.0394 H6            1 RES     
   18223 H6        -251.5067   -78.0029   148.7380 H6            1 RES     
   18224 H6        -253.1431   -80.6192   148.8763 H6            1 RES     
   18225 H6        -252.0127   -80.0505   147.6278 H6            1 RES     
   18226 H6        -250.1581   -79.8405   149.3625 H6            1 RES     
   18227 H6        -251.1708   -80.8679   150.4494 H6            1 RES     
   18228 H6        -251.1834   -82.6312   148.5099 H6            1 RES     
   18229 H6        -250.1962   -81.4734   147.5754 H6            1 RES     
   18230 H6        -248.4365   -81.5544   149.4321 H6            1 RES     
   18231 H6        -249.3228   -82.9775   150.0814 H6            1 RES     
   18232 H6        -247.3706   -83.5906   148.6547 H6            1 RES     
   18233 H6        -247.9856   -82.5845   147.3005 H6            1 RES     
   18234 H6        -249.9154   -84.1264   146.9884 H6            1 RES     
   18235 H6        -249.3465   -85.1391   148.3768 H6            1 RES     
   18236 H6        -247.2106   -85.6160   147.1505 H6            1 RES     
   18237 H6        -247.7621   -84.5875   145.7715 H6            1 RES     
   18238 H6        -248.6448   -86.1049   146.1761 H6            1 RES     
   18239 H6        -252.2218   -72.9359   150.5000 H6            1 RES     
   18240 H6        -251.3354   -74.4413   150.6783 H6            1 RES     
   18241 H6        -250.4461   -73.3099   148.9323 H6            1 RES     
   18242 H6        -251.8976   -75.6846   147.5963 H6            1 RES     
   18243 H6        -250.4299   -75.7197   148.7072 H6            1 RES     
   18244 H6        -250.5313   -74.7019   145.8697 H6            1 RES     
   18245 H6        -249.1313   -74.5746   147.0552 H6            1 RES     
   18246 H6        -248.7654   -76.3231   145.5338 H6            1 RES     
   18247 H6        -249.1152   -77.1235   147.1041 H6            1 RES     
   18248 H6        -251.1934   -76.6370   144.8475 H6            1 RES     
   18249 H6        -251.4161   -77.7296   146.2538 H6            1 RES     
   18250 H6        -249.3579   -77.9781   143.9314 H6            1 RES     
   18251 H6        -250.9105   -78.8762   144.0427 H6            1 RES     
   18252 H6        -249.0004   -80.2994   144.6867 H6            1 RES     
   18253 H6        -250.1625   -80.0408   146.0322 H6            1 RES     
   18254 H6        -248.5682   -79.1779   146.0298 H6            1 RES     
   18255 H6        -252.7972   -73.1414   146.9466 H6            1 RES     
   18256 H6        -252.3475   -71.8401   148.1129 H6            1 RES     
   18257 H6        -250.1308   -71.6494   147.4772 H6            1 RES     
   18258 H6        -250.2112   -72.7514   146.1310 H6            1 RES     
   18259 H6        -249.9813   -70.4960   145.6404 H6            1 RES     
   18260 H6        -251.6126   -70.0372   146.1521 H6            1 RES     
   18261 H6        -252.5363   -71.2190   144.1347 H6            1 RES     
   18262 H6        -251.0086   -72.1541   143.9189 H6            1 RES     
   18263 H6        -249.6761   -70.1941   143.4613 H6            1 RES     
   18264 H6        -251.0861   -69.0849   143.6420 H6            1 RES     
   18265 H6        -252.0874   -69.9931   141.5737 H6            1 RES     
   18266 H6        -250.7925   -71.2509   141.4468 H6            1 RES     
   18267 H6        -249.0315   -69.5166   141.2522 H6            1 RES     
   18268 H6        -250.2510   -68.2006   141.4257 H6            1 RES     
   18269 H6        -251.3168   -68.8830   139.2846 H6            1 RES     
   18270 H6        -250.1191   -70.2352   139.1075 H6            1 RES     
   18271 H6        -249.5651   -68.5216   139.0746 H6            1 RES     
   18272 C0        -248.5444   -75.0409   161.7081 C0            1 RES     
   18273 C1        -249.4684   -74.2680   162.3544 C1            1 RES     
   18274 C1        -250.6978   -74.8194   162.3897 C1            1 RES     
   18275 C1        -250.7363   -75.9414   161.7415 C1            1 RES     
   18276 C1        -249.4160   -76.2430   161.1612 C1            1 RES     
   18277 C1        -249.8913   -76.1658   159.7181 C1            1 RES     
   18278 C1        -251.2364   -76.2462   159.5006 C1            1 RES     
   18279 S2        -252.1892   -76.6134   161.0131 S2            1 RES     
   18280 C1        -251.8857   -75.9930   158.1463 C1            1 RES     
   18281 C1        -251.1167   -75.9899   156.9453 C1            1 RES     
   18282 N3        -251.6859   -75.7399   155.7305 N3            1 RES     
   18283 C1        -252.9998   -75.4593   155.5811 C1            1 RES     
   18284 C1        -253.8099   -75.4227   156.7091 C1            1 RES     
   18285 C1        -253.2573   -75.6974   157.9971 C1            1 RES     
   18286 N3        -254.1487   -75.6189   159.0251 N3            1 RES     
   18287 S2        -255.5618   -75.2210   158.2573 S2            1 RES     
   18288 N3        -255.1319   -75.1274   156.6654 N3            1 RES     
   18289 S2        -251.8623   -73.8255   163.0660 S2            1 RES     
   18290 C1        -250.7397   -72.5927   163.3612 C1            1 RES     
   18291 C1        -249.4792   -72.9643   162.8778 C1            1 RES     
   18292 C0        -247.4276   -75.4287   162.7930 C0            1 RES     
   18293 C0        -247.0865   -75.3924   164.3668 C0            1 RES     
   18294 C0        -247.2550   -74.0136   165.0796 C0            1 RES     
   18295 C0        -248.2499   -74.1096   166.2517 C0            1 RES     
   18296 C0        -248.6113   -72.7541   166.8853 C0            1 RES     
   18297 C0        -249.5171   -72.9863   168.1098 C0            1 RES     
   18298 C0        -250.0906   -71.6859   168.6864 C0            1 RES     
   18299 C0        -250.9502   -71.9774   169.9186 C0            1 RES     
   18300 C0        -245.5720   -75.8783   164.4614 C0            1 RES     
   18301 C0        -244.7080   -76.0247   165.7533 C0            1 RES     
   18302 C0        -244.0124   -74.7427   166.3054 C0            1 RES     
   18303 C0        -242.6901   -75.0879   167.0572 C0            1 RES     
   18304 C0        -241.9063   -73.8474   167.5339 C0            1 RES     
   18305 C0        -240.4043   -74.1145   167.8133 C0            1 RES     
   18306 C0        -240.1057   -75.1864   168.8716 C0            1 RES     
   18307 C0        -238.5927   -75.3256   169.0887 C0            1 RES     
   18308 C0        -247.6813   -74.2298   160.6264 C0            1 RES     
   18309 C0        -246.3472   -74.7464   159.8265 C0            1 RES     
   18310 C0        -245.1464   -75.1098   160.7893 C0            1 RES     
   18311 C0        -243.7504   -75.2936   160.2029 C0            1 RES     
   18312 C0        -242.6200   -75.4818   161.2306 C0            1 RES     
   18313 C0        -242.6470   -76.8646   161.9143 C0            1 RES     
   18314 C0        -241.2813   -77.2433   162.5153 C0            1 RES     
   18315 C0        -240.8599   -76.3688   163.6835 C0            1 RES     
   18316 C0        -246.4942   -75.7533   158.5964 C0            1 RES     
   18317 C0        -245.4080   -75.4799   157.4876 C0            1 RES     
   18318 C0        -245.3870   -76.1766   156.0991 C0            1 RES     
   18319 C0        -244.6510   -77.5481   155.9468 C0            1 RES     
   18320 C0        -244.0250   -77.6187   154.5192 C0            1 RES     
   18321 C0        -243.2215   -78.8861   154.1553 C0            1 RES     
   18322 C0        -242.4761   -78.6491   152.8178 C0            1 RES     
   18323 C0        -241.6922   -79.8664   152.3295 C0            1 RES     
   18324 H4        -249.2162   -75.9658   158.9278 H4            1 RES     
   18325 H5        -250.0614   -76.2085   156.9624 H5            1 RES     
   18326 H4        -248.6372   -72.2907   162.8937 H4            1 RES     
   18327 H6        -247.1908   -76.4777   162.5137 H6            1 RES     
   18328 H6        -246.6368   -74.7338   162.5940 H6            1 RES     
   18329 H6        -247.7164   -76.1492   164.8840 H6            1 RES     
   18330 H6        -246.2953   -73.6260   165.4659 H6            1 RES     
   18331 H6        -247.5427   -73.2468   164.3698 H6            1 RES     
   18332 H6        -249.1970   -74.5644   165.8864 H6            1 RES     
   18333 H6        -247.8045   -74.7770   167.0223 H6            1 RES     
   18334 H6        -247.6985   -72.2050   167.2057 H6            1 RES     
   18335 H6        -249.1474   -72.1431   166.1258 H6            1 RES     
   18336 H6        -248.9254   -73.5122   168.8924 H6            1 RES     
   18337 H6        -250.3730   -73.6331   167.8177 H6            1 RES     
   18338 H6        -249.2723   -70.9915   168.9738 H6            1 RES     
   18339 H6        -250.7251   -71.1942   167.9166 H6            1 RES     
   18340 H6        -251.7744   -72.6782   169.6632 H6            1 RES     
   18341 H6        -250.3300   -72.4298   170.7222 H6            1 RES     
   18342 H6        -251.3956   -71.0359   170.3034 H6            1 RES     
   18343 H6        -245.5871   -76.9001   164.0226 H6            1 RES     
   18344 H6        -244.9444   -75.2531   163.7879 H6            1 RES     
   18345 H6        -245.2079   -76.6128   166.5490 H6            1 RES     
   18346 H6        -243.8625   -76.6497   165.3878 H6            1 RES     
   18347 H6        -243.7072   -74.1070   165.4436 H6            1 RES     
   18348 H6        -244.7023   -74.1613   166.9501 H6            1 RES     
   18349 H6        -242.8721   -75.7722   167.9126 H6            1 RES     
   18350 H6        -242.0364   -75.6106   166.3430 H6            1 RES     
   18351 H6        -241.9149   -73.0830   166.7262 H6            1 RES     
   18352 H6        -242.4075   -73.4112   168.4239 H6            1 RES     
   18353 H6        -239.9427   -73.1554   168.1376 H6            1 RES     
   18354 H6        -239.9133   -74.4185   166.8616 H6            1 RES     
   18355 H6        -240.5020   -76.1671   168.5334 H6            1 RES     
   18356 H6        -240.5821   -74.9124   169.8357 H6            1 RES     
   18357 H6        -238.1621   -74.3698   169.4584 H6            1 RES     
   18358 H6        -238.0814   -75.6039   168.1416 H6            1 RES     
   18359 H6        -238.3867   -76.1158   169.8416 H6            1 RES     
   18360 H6        -248.3926   -73.8573   159.8569 H6            1 RES     
   18361 H6        -247.3274   -73.3066   161.1398 H6            1 RES     
   18362 H6        -246.0529   -73.7939   159.3349 H6            1 RES     
   18363 H6        -245.3726   -76.0456   161.3344 H6            1 RES     
   18364 H6        -245.0150   -74.2450   161.4744 H6            1 RES     
   18365 H6        -243.7219   -76.2081   159.5845 H6            1 RES     
   18366 H6        -243.5172   -74.3808   159.6130 H6            1 RES     
   18367 H6        -241.6842   -75.4306   160.6347 H6            1 RES     
   18368 H6        -242.5960   -74.6544   161.9744 H6            1 RES     
   18369 H6        -242.8444   -77.6359   161.1399 H6            1 RES     
   18370 H6        -243.4592   -76.9253   162.6690 H6            1 RES     
   18371 H6        -240.5058   -77.1884   161.7206 H6            1 RES     
   18372 H6        -241.3278   -78.2942   162.8743 H6            1 RES     
   18373 H6        -239.8629   -76.6945   164.0507 H6            1 RES     
   18374 H6        -241.5951   -76.5067   164.4890 H6            1 RES     
   18375 H6        -240.7978   -75.2989   163.3972 H6            1 RES     
   18376 H6        -246.5408   -76.8109   158.9368 H6            1 RES     
   18377 H6        -247.4213   -75.5066   158.0539 H6            1 RES     
   18378 H6        -245.5529   -74.4042   157.2488 H6            1 RES     
   18379 H6        -244.3776   -75.5565   157.8180 H6            1 RES     
   18380 H6        -244.7479   -75.4644   155.5301 H6            1 RES     
   18381 H6        -246.3707   -76.1694   155.5857 H6            1 RES     
   18382 H6        -245.3437   -78.3922   156.1552 H6            1 RES     
   18383 H6        -243.7991   -77.6077   156.6588 H6            1 RES     
   18384 H6        -243.3102   -76.7675   154.4494 H6            1 RES     
   18385 H6        -244.8153   -77.4738   153.7515 H6            1 RES     
   18386 H6        -243.9123   -79.7522   154.0661 H6            1 RES     
   18387 H6        -242.4658   -79.1057   154.9406 H6            1 RES     
   18388 H6        -241.7555   -77.8104   152.9495 H6            1 RES     
   18389 H6        -243.1993   -78.3644   152.0233 H6            1 RES     
   18390 H6        -242.3800   -80.7109   152.1169 H6            1 RES     
   18391 H6        -240.9359   -80.1791   153.0793 H6            1 RES     
   18392 H6        -241.1605   -79.6051   151.3868 H6            1 RES     
   18393 C0        -251.9169   -63.5993   164.9491 C0            1 RES     
   18394 C1        -253.2437   -63.6805   164.6301 C1            1 RES     
   18395 C1        -253.9211   -64.5738   165.3784 C1            1 RES     
   18396 C1        -253.1370   -65.2025   166.1971 C1            1 RES     
   18397 C1        -251.7475   -64.7415   166.0309 C1            1 RES     
   18398 C1        -251.2235   -66.0878   165.5542 C1            1 RES     
   18399 C1        -252.0004   -67.1820   165.8037 C1            1 RES     
   18400 S2        -253.4579   -66.8091   166.8366 S2            1 RES     
   18401 C1        -251.7174   -68.5632   165.2275 C1            1 RES     
   18402 C1        -250.4450   -68.8869   164.6707 C1            1 RES     
   18403 N3        -250.1903   -70.1138   164.1303 N3            1 RES     
   18404 C1        -251.1203   -71.0926   164.0649 C1            1 RES     
   18405 C1        -252.3914   -70.8444   164.5677 C1            1 RES     
   18406 C1        -252.6934   -69.5799   165.1590 C1            1 RES     
   18407 N3        -253.9754   -69.4538   165.6041 N3            1 RES     
   18408 S2        -254.6389   -70.9268   165.2374 S2            1 RES     
   18409 N3        -253.3972   -71.7517   164.5264 N3            1 RES     
   18410 S2        -255.5159   -64.7720   164.9108 S2            1 RES     
   18411 C1        -255.3670   -63.6318   163.6678 C1            1 RES     
   18412 C1        -254.0529   -63.1519   163.6104 C1            1 RES     
   18413 C0        -251.6585   -62.1039   165.4701 C0            1 RES     
   18414 C0        -252.3982   -60.7430   165.9120 C0            1 RES     
   18415 C0        -253.4613   -60.1790   164.9173 C0            1 RES     
   18416 C0        -254.8396   -60.0436   165.5918 C0            1 RES     
   18417 C0        -255.9804   -59.6722   164.6273 C0            1 RES     
   18418 C0        -257.2782   -59.4550   165.4286 C0            1 RES     
   18419 C0        -258.5120   -59.2776   164.5348 C0            1 RES     
   18420 C0        -259.7605   -59.0305   165.3847 C0            1 RES     
   18421 C0        -251.2187   -59.6903   166.1106 C0            1 RES     
   18422 C0        -251.3529   -58.1919   166.5271 C0            1 RES     
   18423 C0        -251.6779   -57.1575   165.4061 C0            1 RES     
   18424 C0        -251.0875   -55.7519   165.7357 C0            1 RES     
   18425 C0        -251.2894   -54.7156   164.6107 C0            1 RES     
   18426 C0        -250.3126   -53.5125   164.6733 C0            1 RES     
   18427 C0        -250.3575   -52.6870   165.9674 C0            1 RES     
   18428 C0        -249.3819   -51.5047   165.8889 C0            1 RES     
   18429 C0        -250.9498   -63.6718   163.6714 C0            1 RES     
   18430 C0        -249.3367   -63.3846   163.6256 C0            1 RES     
   18431 C0        -248.9538   -61.9150   164.0667 C0            1 RES     
   18432 C0        -247.5510   -61.3912   163.7760 C0            1 RES     
   18433 C0        -247.3217   -59.9021   164.0911 C0            1 RES     
   18434 C0        -247.2498   -59.6072   165.6038 C0            1 RES     
   18435 C0        -246.5242   -58.2832   165.9046 C0            1 RES     
   18436 C0        -247.2683   -57.0506   165.4207 C0            1 RES     
   18437 C0        -248.3142   -64.4883   164.1592 C0            1 RES     
   18438 C0        -246.9763   -64.4933   163.3261 C0            1 RES     
   18439 C0        -245.8537   -65.5548   163.4886 C0            1 RES     
   18440 C0        -244.7403   -65.3267   164.5630 C0            1 RES     
   18441 C0        -243.4017   -65.9197   164.0230 C0            1 RES     
   18442 C0        -242.1499   -65.7827   164.9166 C0            1 RES     
   18443 C0        -240.8965   -66.1905   164.1020 C0            1 RES     
   18444 C0        -239.6006   -66.1492   164.9104 C0            1 RES     
   18445 H4        -250.3411   -66.1592   164.9740 H4            1 RES     
   18446 H5        -249.6375   -68.1731   164.6818 H5            1 RES     
   18447 H4        -253.7226   -62.4745   162.8390 H4            1 RES     
   18448 H6        -250.9350   -62.2707   166.2967 H6            1 RES     
   18449 H6        -251.2402   -61.6123   164.6151 H6            1 RES     
   18450 H6        -252.8763   -60.9046   166.9031 H6            1 RES     
   18451 H6        -253.1704   -59.1924   164.5144 H6            1 RES     
   18452 H6        -253.5100   -60.7871   164.0215 H6            1 RES     
   18453 H6        -255.1098   -61.0150   166.0616 H6            1 RES     
   18454 H6        -254.7546   -59.2708   166.3875 H6            1 RES     
   18455 H6        -255.7414   -58.7447   164.0617 H6            1 RES     
   18456 H6        -256.1147   -60.5068   163.9042 H6            1 RES     
   18457 H6        -257.1506   -58.5549   166.0709 H6            1 RES     
   18458 H6        -257.4588   -60.3353   166.0834 H6            1 RES     
   18459 H6        -258.3724   -58.4207   163.8416 H6            1 RES     
   18460 H6        -258.6648   -60.2026   163.9363 H6            1 RES     
   18461 H6        -259.9215   -59.8695   166.0959 H6            1 RES     
   18462 H6        -259.6529   -58.0865   165.9612 H6            1 RES     
   18463 H6        -260.6547   -58.9462   164.7320 H6            1 RES     
   18464 H6        -250.5836   -60.1413   166.9043 H6            1 RES     
   18465 H6        -250.5979   -59.6580   165.1876 H6            1 RES     
   18466 H6        -251.9731   -58.0443   167.4340 H6            1 RES     
   18467 H6        -250.3075   -57.9464   166.8206 H6            1 RES     
   18468 H6        -251.1709   -57.4807   164.4689 H6            1 RES     
   18469 H6        -252.7696   -57.1021   165.2195 H6            1 RES     
   18470 H6        -251.4867   -55.3543   166.6926 H6            1 RES     
   18471 H6        -250.0001   -55.8745   165.8513 H6            1 RES     
   18472 H6        -251.0822   -55.2010   163.6318 H6            1 RES     
   18473 H6        -252.3460   -54.3734   164.6067 H6            1 RES     
   18474 H6        -250.5425   -52.8426   163.8153 H6            1 RES     
   18475 H6        -249.2741   -53.8892   164.5364 H6            1 RES     
   18476 H6        -250.0654   -53.3245   166.8285 H6            1 RES     
   18477 H6        -251.3823   -52.2952   166.1335 H6            1 RES     
   18478 H6        -249.6600   -50.8241   165.0551 H6            1 RES     
   18479 H6        -248.3414   -51.8608   165.7260 H6            1 RES     
   18480 H6        -249.4081   -50.9252   166.8361 H6            1 RES     
   18481 H6        -251.1125   -64.6644   163.1970 H6            1 RES     
   18482 H6        -251.3576   -62.9460   162.9311 H6            1 RES     
   18483 H6        -249.1810   -63.4119   162.5253 H6            1 RES     
   18484 H6        -249.1010   -61.8003   165.1573 H6            1 RES     
   18485 H6        -249.6008   -61.2280   163.4803 H6            1 RES     
   18486 H6        -246.8149   -61.9265   164.4013 H6            1 RES     
   18487 H6        -247.3632   -61.5359   162.6900 H6            1 RES     
   18488 H6        -246.3214   -59.6736   163.6662 H6            1 RES     
   18489 H6        -248.0660   -59.2522   163.5791 H6            1 RES     
   18490 H6        -246.6287   -60.3917   166.0858 H6            1 RES     
   18491 H6        -248.2576   -59.6384   166.0689 H6            1 RES     
   18492 H6        -245.5154   -58.3065   165.4379 H6            1 RES     
   18493 H6        -246.3892   -58.1914   167.0041 H6            1 RES     
   18494 H6        -246.6766   -56.1413   165.6612 H6            1 RES     
   18495 H6        -248.2249   -57.0022   165.9601 H6            1 RES     
   18496 H6        -247.4439   -57.0776   164.3258 H6            1 RES     
   18497 H6        -248.1654   -64.4106   165.2585 H6            1 RES     
   18498 H6        -248.7205   -65.4841   163.9186 H6            1 RES     
   18499 H6        -247.3279   -64.6286   162.2805 H6            1 RES     
   18500 H6        -246.4305   -63.5558   163.3183 H6            1 RES     
   18501 H6        -245.3209   -65.4293   162.5191 H6            1 RES     
   18502 H6        -246.2290   -66.5991   163.4890 H6            1 RES     
   18503 H6        -245.0408   -65.7626   165.5405 H6            1 RES     
   18504 H6        -244.5594   -64.2387   164.7033 H6            1 RES     
   18505 H6        -243.1733   -65.3690   163.0824 H6            1 RES     
   18506 H6        -243.5368   -66.9942   163.7736 H6            1 RES     
   18507 H6        -242.2585   -66.4319   165.8120 H6            1 RES     
   18508 H6        -242.0222   -64.7290   165.2472 H6            1 RES     
   18509 H6        -240.7829   -65.4939   163.2407 H6            1 RES     
   18510 H6        -241.0199   -67.2202   163.7021 H6            1 RES     
   18511 H6        -239.6395   -66.8816   165.7432 H6            1 RES     
   18512 H6        -239.4163   -65.1321   165.3145 H6            1 RES     
   18513 H6        -238.7475   -66.4205   164.2483 H6            1 RES     
   18514 C0        -260.4791   -62.1872   156.1467 C0            1 RES     
   18515 C1        -261.1808   -63.3411   156.3588 C1            1 RES     
   18516 C1        -261.7835   -63.3881   157.5635 C1            1 RES     
   18517 C1        -261.5055   -62.3422   158.2771 C1            1 RES     
   18518 C1        -260.6027   -61.4430   157.5375 C1            1 RES     
   18519 C1        -259.4479   -61.5892   158.5170 C1            1 RES     
   18520 C1        -259.7402   -62.0853   159.7545 C1            1 RES     
   18521 S2        -261.5294   -62.3099   160.0354 S2            1 RES     
   18522 C1        -258.6800   -62.4732   160.7769 C1            1 RES     
   18523 C1        -257.3303   -62.0313   160.6480 C1            1 RES     
   18524 N3        -256.3686   -62.3939   161.5458 N3            1 RES     
   18525 C1        -256.6174   -63.2057   162.5977 C1            1 RES     
   18526 C1        -257.9054   -63.6945   162.7773 C1            1 RES     
   18527 C1        -258.9451   -63.3237   161.8712 C1            1 RES     
   18528 N3        -260.1603   -63.8764   162.1455 N3            1 RES     
   18529 S2        -259.8560   -64.7805   163.5000 S2            1 RES     
   18530 N3        -258.2483   -64.5325   163.7858 N3            1 RES     
   18531 S2        -262.5382   -64.8476   157.8823 S2            1 RES     
   18532 C1        -262.0927   -65.4871   156.3790 C1            1 RES     
   18533 C1        -261.3162   -64.5600   155.6732 C1            1 RES     
   18534 C0        -261.1694   -61.4503   154.8997 C0            1 RES     
   18535 C0        -262.4590   -61.4761   153.9349 C0            1 RES     
   18536 C0        -262.8001   -62.8481   153.2724 C0            1 RES     
   18537 C0        -264.2266   -63.3029   153.6347 C0            1 RES     
   18538 C0        -264.5695   -64.7312   153.1744 C0            1 RES     
   18539 C0        -266.0477   -65.0299   153.4897 C0            1 RES     
   18540 C0        -266.4273   -66.4965   153.2496 C0            1 RES     
   18541 C0        -267.9119   -66.7227   153.5448 C0            1 RES     
   18542 C0        -262.1447   -60.3880   152.8142 C0            1 RES     
   18543 C0        -263.0462   -59.9962   151.6015 C0            1 RES     
   18544 C0        -262.9677   -60.8894   150.3255 C0            1 RES     
   18545 C0        -263.2754   -60.0707   149.0341 C0            1 RES     
   18546 C0        -263.1090   -60.8814   147.7320 C0            1 RES     
   18547 C0        -262.9085   -60.0113   146.4639 C0            1 RES     
   18548 C0        -264.0375   -59.0173   146.1548 C0            1 RES     
   18549 C0        -263.7436   -58.2512   144.8577 C0            1 RES     
   18550 C0        -258.9934   -62.4381   155.5964 C0            1 RES     
   18551 C0        -257.9441   -61.3204   155.0166 C0            1 RES     
   18552 C0        -258.4888   -60.5576   153.7428 C0            1 RES     
   18553 C0        -257.5235   -59.7300   152.9004 C0            1 RES     
   18554 C0        -258.1055   -59.1606   151.5941 C0            1 RES     
   18555 C0        -259.0912   -57.9967   151.8269 C0            1 RES     
   18556 C0        -259.2568   -57.1154   150.5756 C0            1 RES     
   18557 C0        -259.9346   -57.8195   149.4129 C0            1 RES     
   18558 C0        -257.1496   -60.3724   156.0258 C0            1 RES     
   18559 C0        -255.7023   -60.0421   155.4967 C0            1 RES     
   18560 C0        -254.6260   -59.2839   156.3215 C0            1 RES     
   18561 C0        -254.5906   -57.7212   156.2723 C0            1 RES     
   18562 C0        -253.1056   -57.2552   156.3850 C0            1 RES     
   18563 C0        -252.8291   -55.7370   156.3321 C0            1 RES     
   18564 C0        -251.3035   -55.5024   156.1960 C0            1 RES     
   18565 C0        -250.9087   -54.0264   156.1940 C0            1 RES     
   18566 H4        -258.4493   -61.4017   158.2203 H4            1 RES     
   18567 H5        -257.0360   -61.3761   159.8444 H5            1 RES     
   18568 H4        -260.8623   -64.7962   154.7239 H4            1 RES     
   18569 H6        -261.1090   -60.3828   155.2018 H6            1 RES     
   18570 H6        -260.5342   -61.7086   154.0765 H6            1 RES     
   18571 H6        -263.3410   -61.1208   154.5118 H6            1 RES     
   18572 H6        -262.7136   -62.8104   152.1717 H6            1 RES     
   18573 H6        -262.0608   -63.5958   153.5350 H6            1 RES     
   18574 H6        -264.3452   -63.2768   154.7403 H6            1 RES     
   18575 H6        -264.9399   -62.5807   153.1795 H6            1 RES     
   18576 H6        -264.3978   -64.8527   152.0821 H6            1 RES     
   18577 H6        -263.9123   -65.4436   153.7205 H6            1 RES     
   18578 H6        -266.6841   -64.3716   152.8568 H6            1 RES     
   18579 H6        -266.2506   -64.7987   154.5582 H6            1 RES     
   18580 H6        -266.2209   -66.7863   152.1971 H6            1 RES     
   18581 H6        -265.8262   -67.1441   153.9250 H6            1 RES     
   18582 H6        -268.1509   -66.4326   154.5909 H6            1 RES     
   18583 H6        -268.5381   -66.1195   152.8527 H6            1 RES     
   18584 H6        -268.1677   -67.7946   153.4099 H6            1 RES     
   18585 H6        -262.0211   -59.4405   153.3832 H6            1 RES     
   18586 H6        -261.1570   -60.6123   152.3532 H6            1 RES     
   18587 H6        -264.0900   -59.7604   151.8913 H6            1 RES     
   18588 H6        -262.5862   -59.0343   151.2817 H6            1 RES     
   18589 H6        -261.9197   -61.2471   150.2082 H6            1 RES     
   18590 H6        -263.6365   -61.7695   150.4134 H6            1 RES     
   18591 H6        -264.2875   -59.6152   149.0695 H6            1 RES     
   18592 H6        -262.5412   -59.2526   148.9845 H6            1 RES     
   18593 H6        -262.1853   -61.4962   147.8055 H6            1 RES     
   18594 H6        -263.9711   -61.5713   147.6118 H6            1 RES     
   18595 H6        -262.7902   -60.6972   145.5959 H6            1 RES     
   18596 H6        -261.9600   -59.4386   146.5710 H6            1 RES     
   18597 H6        -264.1262   -58.2822   146.9824 H6            1 RES     
   18598 H6        -264.9999   -59.5579   146.0412 H6            1 RES     
   18599 H6        -263.6778   -58.9517   143.9972 H6            1 RES     
   18600 H6        -262.7854   -57.6930   144.9367 H6            1 RES     
   18601 H6        -264.5562   -57.5221   144.6531 H6            1 RES     
   18602 H6        -258.4504   -63.0127   156.3785 H6            1 RES     
   18603 H6        -259.0923   -63.1561   154.7503 H6            1 RES     
   18604 H6        -257.1508   -61.9999   154.6362 H6            1 RES     
   18605 H6        -259.3024   -59.8683   154.0379 H6            1 RES     
   18606 H6        -258.8348   -61.3361   153.0296 H6            1 RES     
   18607 H6        -257.1950   -58.8433   153.4707 H6            1 RES     
   18608 H6        -256.6732   -60.3917   152.6269 H6            1 RES     
   18609 H6        -257.2303   -58.7435   151.0523 H6            1 RES     
   18610 H6        -258.5514   -59.9578   150.9585 H6            1 RES     
   18611 H6        -258.6634   -57.3228   152.5990 H6            1 RES     
   18612 H6        -260.0690   -58.3656   152.2020 H6            1 RES     
   18613 H6        -258.2572   -56.7538   150.2499 H6            1 RES     
   18614 H6        -259.8702   -56.2277   150.8423 H6            1 RES     
   18615 H6        -260.0039   -57.1256   148.5477 H6            1 RES     
   18616 H6        -260.9516   -58.0902   149.7307 H6            1 RES     
   18617 H6        -259.3763   -58.7239   149.0956 H6            1 RES     
   18618 H6        -257.7482   -59.4771   156.3029 H6            1 RES     
   18619 H6        -256.9189   -60.9492   156.9361 H6            1 RES     
   18620 H6        -255.2572   -61.0465   155.3288 H6            1 RES     
   18621 H6        -255.6618   -59.5532   154.5292 H6            1 RES     
   18622 H6        -253.7057   -59.5905   155.7751 H6            1 RES     
   18623 H6        -254.5034   -59.6738   157.3532 H6            1 RES     
   18624 H6        -255.2390   -57.2873   157.0642 H6            1 RES     
   18625 H6        -254.9515   -57.3599   155.2846 H6            1 RES     
   18626 H6        -252.5725   -57.6983   155.5134 H6            1 RES     
   18627 H6        -252.6509   -57.6608   157.3144 H6            1 RES     
   18628 H6        -253.2145   -55.2558   157.2568 H6            1 RES     
   18629 H6        -253.3310   -55.2813   155.4510 H6            1 RES     
   18630 H6        -250.9531   -55.9500   155.2386 H6            1 RES     
   18631 H6        -250.7650   -56.0014   157.0305 H6            1 RES     
   18632 H6        -251.1763   -53.5520   157.1609 H6            1 RES     
   18633 H6        -251.4027   -53.4838   155.3613 H6            1 RES     
   18634 H6        -249.8067   -53.9425   156.0588 H6            1 RES     
   18635 C0        -261.5874   -74.1933   153.4237 C0            1 RES     
   18636 C1        -261.7823   -74.6716   154.6894 C1            1 RES     
   18637 C1        -262.9245   -74.2359   155.2570 C1            1 RES     
   18638 C1        -263.5534   -73.4046   154.4864 C1            1 RES     
   18639 C1        -262.8007   -73.1949   153.2372 C1            1 RES     
   18640 C1        -262.5403   -71.7180   153.4926 C1            1 RES     
   18641 C1        -263.3202   -71.1009   154.4275 C1            1 RES     
   18642 S2        -264.6598   -72.1650   155.0628 S2            1 RES     
   18643 C1        -263.0630   -69.6890   154.9378 C1            1 RES     
   18644 C1        -262.2037   -68.7931   154.2359 C1            1 RES     
   18645 N3        -261.9483   -67.5349   154.6985 N3            1 RES     
   18646 C1        -262.4676   -67.0594   155.8525 C1            1 RES     
   18647 C1        -263.2975   -67.8825   156.6035 C1            1 RES     
   18648 C1        -263.6054   -69.1995   156.1449 C1            1 RES     
   18649 N3        -264.4189   -69.9129   156.9737 N3            1 RES     
   18650 S2        -264.7031   -68.8514   158.2135 S2            1 RES     
   18651 N3        -263.8463   -67.5063   157.7842 N3            1 RES     
   18652 S2        -263.1091   -74.7131   156.8506 S2            1 RES     
   18653 C1        -261.6405   -75.5560   156.8422 C1            1 RES     
   18654 C1        -261.0072   -75.4060   155.6025 C1            1 RES     
   18655 C0        -261.5771   -75.4657   152.4463 C0            1 RES     
   18656 C0        -261.8774   -77.0469   152.3794 C0            1 RES     
   18657 C0        -261.2038   -77.9262   153.4797 C0            1 RES     
   18658 C0        -262.2549   -78.7106   154.2876 C0            1 RES     
   18659 C0        -261.6857   -79.4543   155.5093 C0            1 RES     
   18660 C0        -262.8017   -80.2883   156.1670 C0            1 RES     
   18661 C0        -262.3791   -80.9053   157.5060 C0            1 RES     
   18662 C0        -263.5140   -81.7490   158.0912 C0            1 RES     
   18663 C0        -261.3720   -77.4915   150.9352 C0            1 RES     
   18664 C0        -261.4032   -78.9287   150.3268 C0            1 RES     
   18665 C0        -260.2367   -79.8950   150.6981 C0            1 RES     
   18666 C0        -259.9620   -80.9246   149.5591 C0            1 RES     
   18667 C0        -258.7487   -81.8386   149.8292 C0            1 RES     
   18668 C0        -258.1521   -82.4940   148.5565 C0            1 RES     
   18669 C0        -259.1181   -83.3694   147.7449 C0            1 RES     
   18670 C0        -258.4002   -83.9941   146.5407 C0            1 RES     
   18671 C0        -260.1194   -73.5903   153.1904 C0            1 RES     
   18672 C0        -259.4429   -73.1383   151.7676 C0            1 RES     
   18673 C0        -259.3240   -74.3260   150.7302 C0            1 RES     
   18674 C0        -258.4382   -74.1554   149.5002 C0            1 RES     
   18675 C0        -258.2542   -75.4163   148.6367 C0            1 RES     
   18676 C0        -259.5148   -75.7856   147.8275 C0            1 RES     
   18677 C0        -259.1885   -76.6805   146.6183 C0            1 RES     
   18678 C0        -258.6899   -78.0650   146.9947 C0            1 RES     
   18679 C0        -259.8559   -71.7520   151.0923 C0            1 RES     
   18680 C0        -258.6420   -71.0875   150.3381 C0            1 RES     
   18681 C0        -258.6751   -69.6616   149.7221 C0            1 RES     
   18682 C0        -259.1964   -69.4764   148.2593 C0            1 RES     
   18683 C0        -258.3996   -68.3119   147.5929 C0            1 RES     
   18684 C0        -258.7338   -67.9683   146.1251 C0            1 RES     
   18685 C0        -257.6709   -66.9820   145.5790 C0            1 RES     
   18686 C0        -257.9380   -66.5257   144.1455 C0            1 RES     
   18687 H4        -261.7297   -71.2160   153.0329 H4            1 RES     
   18688 H5        -261.7471   -69.0799   153.3027 H5            1 RES     
   18689 H4        -260.0210   -75.7981   155.4109 H4            1 RES     
   18690 H6        -262.1137   -75.0751   151.5554 H6            1 RES     
   18691 H6        -260.5334   -75.6456   152.2844 H6            1 RES     
   18692 H6        -262.9784   -77.2008   152.4135 H6            1 RES     
   18693 H6        -260.4825   -78.6455   153.0522 H6            1 RES     
   18694 H6        -260.5724   -77.3222   154.1209 H6            1 RES     
   18695 H6        -263.0251   -78.0019   154.6640 H6            1 RES     
   18696 H6        -262.7406   -79.4370   153.5991 H6            1 RES     
   18697 H6        -260.8514   -80.1287   155.2154 H6            1 RES     
   18698 H6        -261.2986   -78.7007   156.2302 H6            1 RES     
   18699 H6        -263.1013   -81.0961   155.4621 H6            1 RES     
   18700 H6        -263.6838   -79.6386   156.3574 H6            1 RES     
   18701 H6        -261.4828   -81.5485   157.3744 H6            1 RES     
   18702 H6        -262.1342   -80.0903   158.2221 H6            1 RES     
   18703 H6        -264.4292   -81.1327   158.2265 H6            1 RES     
   18704 H6        -263.7498   -82.5988   157.4151 H6            1 RES     
   18705 H6        -263.2148   -82.1561   159.0799 H6            1 RES     
   18706 H6        -261.9838   -76.8821   150.2343 H6            1 RES     
   18707 H6        -260.3165   -77.1656   150.8005 H6            1 RES     
   18708 H6        -262.3971   -79.4138   150.4026 H6            1 RES     
   18709 H6        -261.2403   -78.7181   149.2459 H6            1 RES     
   18710 H6        -259.3007   -79.2994   150.7927 H6            1 RES     
   18711 H6        -260.4335   -80.4048   151.6631 H6            1 RES     
   18712 H6        -260.8590   -81.5415   149.3397 H6            1 RES     
   18713 H6        -259.7203   -80.3502   148.6523 H6            1 RES     
   18714 H6        -257.9216   -81.2251   150.2490 H6            1 RES     
   18715 H6        -259.0230   -82.6061   150.5837 H6            1 RES     
   18716 H6        -257.2845   -83.1164   148.8691 H6            1 RES     
   18717 H6        -257.7661   -81.6907   147.8895 H6            1 RES     
   18718 H6        -259.9584   -82.7492   147.3677 H6            1 RES     
   18719 H6        -259.5217   -84.1829   148.3827 H6            1 RES     
   18720 H6        -257.5684   -84.6492   146.8792 H6            1 RES     
   18721 H6        -257.9848   -83.2060   145.8756 H6            1 RES     
   18722 H6        -259.1115   -84.6098   145.9501 H6            1 RES     
   18723 H6        -260.0075   -72.7302   153.8865 H6            1 RES     
   18724 H6        -259.4051   -74.3511   153.5804 H6            1 RES     
   18725 H6        -258.4048   -72.9462   152.1158 H6            1 RES     
   18726 H6        -260.3276   -74.5915   150.3474 H6            1 RES     
   18727 H6        -258.8415   -75.1705   151.2673 H6            1 RES     
   18728 H6        -258.8853   -73.4112   148.8177 H6            1 RES     
   18729 H6        -257.4325   -73.8456   149.8581 H6            1 RES     
   18730 H6        -257.4643   -75.1452   147.9046 H6            1 RES     
   18731 H6        -257.8822   -76.2768   149.2363 H6            1 RES     
   18732 H6        -259.9377   -74.8557   147.3916 H6            1 RES     
   18733 H6        -260.2921   -76.2401   148.4774 H6            1 RES     
   18734 H6        -258.4238   -76.1766   145.9880 H6            1 RES     
   18735 H6        -260.1080   -76.8032   146.0059 H6            1 RES     
   18736 H6        -258.4639   -78.6420   146.0723 H6            1 RES     
   18737 H6        -259.4955   -78.5751   147.5417 H6            1 RES     
   18738 H6        -257.7717   -78.0186   147.6154 H6            1 RES     
   18739 H6        -260.7742   -71.8559   150.4736 H6            1 RES     
   18740 H6        -260.0399   -71.0166   151.8922 H6            1 RES     
   18741 H6        -257.8576   -71.0255   151.1230 H6            1 RES     
   18742 H6        -258.2009   -71.6873   149.5490 H6            1 RES     
   18743 H6        -257.5840   -69.4535   149.6465 H6            1 RES     
   18744 H6        -259.0780   -68.8911   150.4115 H6            1 RES     
   18745 H6        -260.2950   -69.3060   148.2512 H6            1 RES     
   18746 H6        -258.9764   -70.3837   147.6555 H6            1 RES     
   18747 H6        -257.3294   -68.6199   147.6036 H6            1 RES     
   18748 H6        -258.5020   -67.3869   148.2001 H6            1 RES     
   18749 H6        -259.7474   -67.5158   146.0700 H6            1 RES     
   18750 H6        -258.7125   -68.8854   145.4970 H6            1 RES     
   18751 H6        -256.6741   -67.4779   145.5984 H6            1 RES     
   18752 H6        -257.6220   -66.0782   146.2242 H6            1 RES     
   18753 H6        -258.8926   -65.9626   144.0892 H6            1 RES     
   18754 H6        -257.9729   -67.3920   143.4525 H6            1 RES     
   18755 H6        -257.1159   -65.8503   143.8172 H6            1 RES     
   18756 C0        -256.2656   -78.4025   163.7556 C0            1 RES     
   18757 C1        -257.0013   -77.6957   164.6656 C1            1 RES     
   18758 C1        -258.3080   -78.0260   164.6708 C1            1 RES     
   18759 C1        -258.5816   -78.9050   163.7582 C1            1 RES     
   18760 C1        -257.3673   -79.2484   162.9976 C1            1 RES     
   18761 C1        -257.8865   -78.7014   161.6764 C1            1 RES     
   18762 C1        -259.2320   -78.4971   161.5729 C1            1 RES     
   18763 S2        -260.1652   -79.1034   163.0193 S2            1 RES     
   18764 C1        -259.8857   -77.7791   160.3994 C1            1 RES     
   18765 C1        -259.1855   -77.5731   159.1743 C1            1 RES     
   18766 N3        -259.7545   -76.9095   158.1264 N3            1 RES     
   18767 C1        -261.0001   -76.3870   158.1799 C1            1 RES     
   18768 C1        -261.7367   -76.5286   159.3492 C1            1 RES     
   18769 C1        -261.1851   -77.2329   160.4625 C1            1 RES     
   18770 N3        -261.9986   -77.2941   161.5543 N3            1 RES     
   18771 S2        -263.3485   -76.4745   161.0538 S2            1 RES     
   18772 N3        -262.9827   -76.0198   159.5088 N3            1 RES     
   18773 S2        -259.2379   -77.0785   165.6901 S2            1 RES     
   18774 C1        -257.8957   -76.1756   166.1908 C1            1 RES     
   18775 C1        -256.7485   -76.6021   165.5106 C1            1 RES     
   18776 C0        -255.1901   -79.2509   164.5912 C0            1 RES     
   18777 C0        -254.7759   -79.7041   166.0803 C0            1 RES     
   18778 C0        -254.6554   -78.5654   167.1417 C0            1 RES     
   18779 C0        -255.5959   -78.8145   168.3360 C0            1 RES     
   18780 C0        -255.6728   -77.6445   169.3334 C0            1 RES     
   18781 C0        -256.5483   -78.0517   170.5340 C0            1 RES     
   18782 C0        -256.8462   -76.8835   171.4821 C0            1 RES     
   18783 C0        -257.6869   -77.3565   172.6703 C0            1 RES     
   18784 C0        -253.3736   -80.4391   165.9016 C0            1 RES     
   18785 C0        -252.4924   -81.0740   167.0229 C0            1 RES     
   18786 C0        -251.5486   -80.1250   167.8233 C0            1 RES     
   18787 C0        -250.2789   -80.8753   168.3308 C0            1 RES     
   18788 C0        -249.2596   -79.9593   169.0396 C0            1 RES     
   18789 C0        -247.8208   -80.5357   169.0968 C0            1 RES     
   18790 C0        -247.6756   -81.8906   169.8048 C0            1 RES     
   18791 C0        -246.2055   -82.3305   169.8345 C0            1 RES     
   18792 C0        -255.3192   -77.4790   162.8477 C0            1 RES     
   18793 C0        -254.1409   -77.9682   161.8186 C0            1 RES     
   18794 C0        -252.9840   -78.7737   162.5354 C0            1 RES     
   18795 C0        -251.6741   -79.0163   161.7927 C0            1 RES     
   18796 C0        -250.5512   -79.6621   162.6243 C0            1 RES     
   18797 C0        -250.8000   -81.1555   162.9216 C0            1 RES     
   18798 C0        -249.5007   -81.9033   163.2714 C0            1 RES     
   18799 C0        -248.8725   -81.4643   164.5828 C0            1 RES     
   18800 C0        -254.5268   -78.5607   160.3874 C0            1 RES     
   18801 C0        -253.4613   -78.1759   159.2917 C0            1 RES     
   18802 C0        -253.6326   -78.4588   157.7737 C0            1 RES     
   18803 C0        -253.1686   -79.8374   157.1993 C0            1 RES     
   18804 C0        -252.6327   -79.6156   155.7506 C0            1 RES     
   18805 C0        -252.0932   -80.8486   154.9938 C0            1 RES     
   18806 C0        -251.3794   -80.3796   153.7010 C0            1 RES     
   18807 C0        -250.8556   -81.5278   152.8396 C0            1 RES     
   18808 H4        -257.2234   -78.4060   160.9061 H4            1 RES     
   18809 H5        -258.1885   -77.9582   159.0342 H5            1 RES     
   18810 H4        -255.7973   -76.1065   165.6230 H4            1 RES     
   18811 H6        -255.1630   -80.2071   164.0261 H6            1 RES     
   18812 H6        -254.2953   -78.6677   164.5075 H6            1 RES     
   18813 H6        -255.5094   -80.4597   166.4383 H6            1 RES     
   18814 H6        -253.6241   -78.4618   167.5239 H6            1 RES     
   18815 H6        -254.8300   -77.5969   166.6876 H6            1 RES     
   18816 H6        -256.6261   -78.9897   167.9552 H6            1 RES     
   18817 H6        -255.2454   -79.7313   168.8596 H6            1 RES     
   18818 H6        -254.6609   -77.3620   169.6990 H6            1 RES     
   18819 H6        -256.1220   -76.7693   168.8142 H6            1 RES     
   18820 H6        -256.0277   -78.8618   171.0924 H6            1 RES     
   18821 H6        -257.5209   -78.4439   170.1647 H6            1 RES     
   18822 H6        -255.9020   -76.4387   171.8630 H6            1 RES     
   18823 H6        -257.4145   -76.1023   170.9311 H6            1 RES     
   18824 H6        -258.6366   -77.8151   172.3191 H6            1 RES     
   18825 H6        -257.1238   -78.1073   173.2655 H6            1 RES     
   18826 H6        -257.9337   -76.4968   173.3282 H6            1 RES     
   18827 H6        -253.5962   -81.2845   165.2141 H6            1 RES     
   18828 H6        -252.6736   -79.7651   165.3593 H6            1 RES     
   18829 H6        -253.0545   -81.7674   167.6803 H6            1 RES     
   18830 H6        -251.7938   -81.7049   166.4287 H6            1 RES     
   18831 H6        -251.1721   -79.3363   167.1333 H6            1 RES     
   18832 H6        -252.0897   -79.6376   168.6597 H6            1 RES     
   18833 H6        -250.5437   -81.7284   168.9904 H6            1 RES     
   18834 H6        -249.7659   -81.2821   167.4464 H6            1 RES     
   18835 H6        -249.1651   -79.0121   168.4646 H6            1 RES     
   18836 H6        -249.6307   -79.7078   170.0558 H6            1 RES     
   18837 H6        -247.1767   -79.7917   169.6159 H6            1 RES     
   18838 H6        -247.4385   -80.6434   168.0569 H6            1 RES     
   18839 H6        -248.2603   -82.6621   169.2605 H6            1 RES     
   18840 H6        -248.0486   -81.8172   170.8473 H6            1 RES     
   18841 H6        -245.5901   -81.5970   170.3993 H6            1 RES     
   18842 H6        -245.7981   -82.4185   168.8038 H6            1 RES     
   18843 H6        -246.1134   -83.3196   170.3316 H6            1 RES     
   18844 H6        -255.9847   -76.7982   162.2729 H6            1 RES     
   18845 H6        -254.7786   -76.8032   163.5492 H6            1 RES     
   18846 H6        -253.6998   -76.9791   161.5681 H6            1 RES     
   18847 H6        -253.3528   -79.7728   162.8354 H6            1 RES     
   18848 H6        -252.6647   -78.1638   163.4074 H6            1 RES     
   18849 H6        -251.8425   -79.7179   160.9567 H6            1 RES     
   18850 H6        -251.3048   -78.0279   161.4431 H6            1 RES     
   18851 H6        -249.6504   -79.6039   161.9773 H6            1 RES     
   18852 H6        -250.3415   -79.0860   163.5530 H6            1 RES     
   18853 H6        -251.1711   -81.6414   161.9946 H6            1 RES     
   18854 H6        -251.5738   -81.2865   163.7071 H6            1 RES     
   18855 H6        -248.7658   -81.7607   162.4495 H6            1 RES     
   18856 H6        -249.7226   -82.9900   163.3456 H6            1 RES     
   18857 H6        -247.9364   -82.0373   164.7565 H6            1 RES     
   18858 H6        -249.5826   -81.6952   165.3895 H6            1 RES     
   18859 H6        -248.6284   -80.3823   164.5820 H6            1 RES     
   18860 H6        -254.7510   -79.6486   160.4419 H6            1 RES     
   18861 H6        -255.4169   -78.0260   160.0181 H6            1 RES     
   18862 H6        -253.4171   -77.0674   159.3576 H6            1 RES     
   18863 H6        -252.4482   -78.5083   159.4921 H6            1 RES     
   18864 H6        -252.9005   -77.7328   157.3534 H6            1 RES     
   18865 H6        -254.6208   -78.1496   157.3749 H6            1 RES     
   18866 H6        -253.9940   -80.5806   157.2436 H6            1 RES     
   18867 H6        -252.3101   -80.2290   157.7874 H6            1 RES     
   18868 H6        -251.7778   -78.9073   155.8391 H6            1 RES     
   18869 H6        -253.4175   -79.1380   155.1254 H6            1 RES     
   18870 H6        -252.9345   -81.5313   154.7464 H6            1 RES     
   18871 H6        -251.3551   -81.3961   155.6195 H6            1 RES     
   18872 H6        -250.5119   -79.7393   153.9791 H6            1 RES     
   18873 H6        -252.0740   -79.7732   153.0803 H6            1 RES     
   18874 H6        -251.6958   -82.1567   152.4791 H6            1 RES     
   18875 H6        -250.1358   -82.1539   153.4068 H6            1 RES     
   18876 H6        -250.3290   -81.1090   151.9524 H6            1 RES     
   18877 C0        -257.3279   -67.8963   170.1805 C0            1 RES     
   18878 C1        -258.6603   -67.6679   169.9776 C1            1 RES     
   18879 C1        -259.4549   -68.6082   170.5263 C1            1 RES     
   18880 C1        -258.7625   -69.5573   171.0744 C1            1 RES     
   18881 C1        -257.3212   -69.3031   170.9047 C1            1 RES     
   18882 C1        -257.0758   -70.5341   170.0452 C1            1 RES     
   18883 C1        -258.0279   -71.5116   170.0715 C1            1 RES     
   18884 S2        -259.3430   -71.2023   171.2984 S2            1 RES     
   18885 C1        -258.0301   -72.7089   169.1300 C1            1 RES     
   18886 C1        -256.8658   -73.0717   168.3908 C1            1 RES     
   18887 N3        -256.8658   -74.1279   167.5266 N3            1 RES     
   18888 C1        -257.9617   -74.8848   167.2950 C1            1 RES     
   18889 C1        -259.1410   -74.5787   167.9626 C1            1 RES     
   18890 C1        -259.1782   -73.4931   168.8898 C1            1 RES     
   18891 N3        -260.3934   -73.2852   169.4710 N3            1 RES     
   18892 S2        -261.3321   -74.4714   168.7957 S2            1 RES     
   18893 N3        -260.2971   -75.2620   167.7800 N3            1 RES     
   18894 S2        -261.0788   -68.4060   170.1753 S2            1 RES     
   18895 C1        -260.7808   -67.0092   169.2657 C1            1 RES     
   18896 C1        -259.4050   -66.7545   169.2126 C1            1 RES     
   18897 C0        -256.7756   -66.6647   171.0480 C0            1 RES     
   18898 C0        -257.2319   -65.3749   171.8983 C0            1 RES     
   18899 C0        -258.2181   -64.3931   171.1904 C0            1 RES     
   18900 C0        -259.5155   -64.2235   172.0033 C0            1 RES     
   18901 C0        -260.6121   -63.4197   171.2814 C0            1 RES     
   18902 C0        -261.8096   -63.2206   172.2300 C0            1 RES     
   18903 C0        -263.0298   -62.6048   171.5339 C0            1 RES     
   18904 C0        -264.1712   -62.3987   172.5325 C0            1 RES     
   18905 C0        -255.8714   -64.6255   172.2536 C0            1 RES     
   18906 C0        -255.7088   -63.2979   173.0585 C0            1 RES     
   18907 C0        -255.8899   -61.9570   172.2830 C0            1 RES     
   18908 C0        -255.0370   -60.8126   172.9119 C0            1 RES     
   18909 C0        -255.0970   -59.4889   172.1215 C0            1 RES     
   18910 C0        -253.9142   -58.5265   172.4047 C0            1 RES     
   18911 C0        -253.7470   -58.0918   173.8680 C0            1 RES     
   18912 C0        -252.5757   -57.1102   174.0102 C0            1 RES     
   18913 C0        -256.4505   -67.7733   168.8433 C0            1 RES     
   18914 C0        -254.8160   -67.7535   168.7227 C0            1 RES     
   18915 C0        -254.1499   -66.5449   169.4951 C0            1 RES     
   18916 C0        -252.6898   -66.1992   169.2209 C0            1 RES     
   18917 C0        -252.1768   -64.9123   169.8918 C0            1 RES     
   18918 C0        -251.9822   -65.0595   171.4152 C0            1 RES     
   18919 C0        -251.0129   -64.0066   171.9824 C0            1 RES     
   18920 C0        -251.5397   -62.5839   171.9102 C0            1 RES     
   18921 C0        -253.9899   -69.1135   168.8502 C0            1 RES     
   18922 C0        -252.7155   -69.1095   167.9228 C0            1 RES     
   18923 C0        -251.8005   -70.3442   167.6956 C0            1 RES     
   18924 C0        -250.6158   -70.6056   168.6825 C0            1 RES     
   18925 C0        -249.4351   -71.2392   167.8828 C0            1 RES     
   18926 C0        -248.1395   -71.5599   168.6592 C0            1 RES     
   18927 C0        -247.0212   -71.9288   167.6521 C0            1 RES     
   18928 C0        -245.7038   -72.3242   168.3175 C0            1 RES     
   18929 H4        -256.2492   -70.5875   169.3862 H4            1 RES     
   18930 H5        -255.9414   -72.5311   168.5123 H5            1 RES     
   18931 H4        -258.9919   -65.9553   168.6179 H4            1 RES     
   18932 H6        -256.0577   -67.1682   171.7303 H6            1 RES     
   18933 H6        -256.3141   -66.0330   170.3161 H6            1 RES     
   18934 H6        -257.6853   -65.7213   172.8530 H6            1 RES     
   18935 H6        -257.7700   -63.3955   171.0342 H6            1 RES     
   18936 H6        -258.4189   -64.7157   170.1754 H6            1 RES     
   18937 H6        -259.9375   -65.2283   172.2258 H6            1 RES     
   18938 H6        -259.2536   -63.7234   172.9619 H6            1 RES     
   18939 H6        -260.2333   -62.4250   170.9584 H6            1 RES     
   18940 H6        -260.9305   -63.9902   170.3810 H6            1 RES     
   18941 H6        -261.4895   -62.5648   173.0706 H6            1 RES     
   18942 H6        -262.1183   -64.2047   172.6456 H6            1 RES     
   18943 H6        -262.7675   -61.6256   171.0792 H6            1 RES     
   18944 H6        -263.3772   -63.2920   170.7314 H6            1 RES     
   18945 H6        -264.4504   -63.3623   173.0111 H6            1 RES     
   18946 H6        -263.8656   -61.6800   173.3232 H6            1 RES     
   18947 H6        -265.0639   -61.9930   172.0117 H6            1 RES     
   18948 H6        -255.2938   -65.3748   172.8382 H6            1 RES     
   18949 H6        -255.2984   -64.4438   171.3170 H6            1 RES     
   18950 H6        -256.2489   -63.3050   174.0265 H6            1 RES     
   18951 H6        -254.6238   -63.3175   173.3063 H6            1 RES     
   18952 H6        -255.4946   -62.0895   171.2505 H6            1 RES     
   18953 H6        -256.9604   -61.6741   172.2209 H6            1 RES     
   18954 H6        -255.3118   -60.6327   173.9726 H6            1 RES     
   18955 H6        -253.9864   -61.1389   172.8886 H6            1 RES     
   18956 H6        -255.0278   -59.7144   171.0347 H6            1 RES     
   18957 H6        -256.0719   -58.9901   172.3066 H6            1 RES     
   18958 H6        -254.0565   -57.6187   171.7774 H6            1 RES     
   18959 H6        -252.9699   -59.0164   172.0769 H6            1 RES     
   18960 H6        -253.5375   -58.9800   174.5008 H6            1 RES     
   18961 H6        -254.6738   -57.5978   174.2265 H6            1 RES     
   18962 H6        -252.7624   -56.1910   173.4136 H6            1 RES     
   18963 H6        -251.6268   -57.5738   173.6627 H6            1 RES     
   18964 H6        -252.4513   -56.8166   175.0743 H6            1 RES     
   18965 H6        -256.8143   -68.5571   168.1431 H6            1 RES     
   18966 H6        -256.7520   -66.8156   168.3605 H6            1 RES     
   18967 H6        -254.7189   -67.5032   167.6440 H6            1 RES     
   18968 H6        -254.2231   -66.7112   170.5865 H6            1 RES     
   18969 H6        -254.6862   -65.6269   169.1724 H6            1 RES     
   18970 H6        -252.0364   -66.9988   169.6123 H6            1 RES     
   18971 H6        -252.5820   -66.0693   168.1223 H6            1 RES     
   18972 H6        -251.1722   -64.7435   169.4493 H6            1 RES     
   18973 H6        -252.8120   -64.0339   169.6401 H6            1 RES     
   18974 H6        -251.4941   -66.0370   171.6145 H6            1 RES     
   18975 H6        -252.9561   -65.0512   171.9486 H6            1 RES     
   18976 H6        -250.0482   -64.0664   171.4332 H6            1 RES     
   18977 H6        -250.8128   -64.2434   173.0499 H6            1 RES     
   18978 H6        -250.7807   -61.8853   172.3236 H6            1 RES     
   18979 H6        -252.4453   -62.5288   172.5309 H6            1 RES     
   18980 H6        -251.7676   -62.2802   170.8680 H6            1 RES     
   18981 H6        -253.7788   -69.3659   169.9125 H6            1 RES     
   18982 H6        -254.5826   -69.9244   168.3967 H6            1 RES     
   18983 H6        -253.1338   -68.8932   166.9162 H6            1 RES     
   18984 H6        -252.0079   -68.3086   168.1094 H6            1 RES     
   18985 H6        -251.2990   -70.0469   166.7471 H6            1 RES     
   18986 H6        -252.3606   -71.2722   167.4579 H6            1 RES     
   18987 H6        -250.9457   -71.2373   169.5356 H6            1 RES     
   18988 H6        -250.2320   -69.6428   169.0851 H6            1 RES     
   18989 H6        -249.1532   -70.4969   167.1019 H6            1 RES     
   18990 H6        -249.7765   -72.1667   167.3747 H6            1 RES     
   18991 H6        -248.3240   -72.4029   169.3596 H6            1 RES     
   18992 H6        -247.8055   -70.6732   169.2405 H6            1 RES     
   18993 H6        -246.8216   -71.0512   166.9964 H6            1 RES     
   18994 H6        -247.3498   -72.7745   167.0101 H6            1 RES     
   18995 H6        -245.8380   -73.2401   168.9294 H6            1 RES     
   18996 H6        -245.3176   -71.5015   168.9546 H6            1 RES     
   18997 H6        -244.9465   -72.5397   167.5303 H6            1 RES     
   18998 C0        -265.8825   -62.7382   162.9002 C0            1 RES     
   18999 C1        -266.7734   -63.7745   162.8680 C1            1 RES     
   19000 C1        -267.3183   -64.0505   164.0695 C1            1 RES     
   19001 C1        -266.8204   -63.3009   165.0026 C1            1 RES     
   19002 C1        -265.8030   -62.3942   164.4426 C1            1 RES     
   19003 C1        -264.6507   -62.9910   165.2366 C1            1 RES     
   19004 C1        -264.9717   -63.7525   166.3229 C1            1 RES     
   19005 S2        -266.7568   -63.7485   166.7022 S2            1 RES     
   19006 C1        -263.9547   -64.5745   167.1038 C1            1 RES     
   19007 C1        -262.5542   -64.3421   166.9687 C1            1 RES     
   19008 N3        -261.6350   -65.0898   167.6456 N3            1 RES     
   19009 C1        -261.9797   -66.1066   168.4670 C1            1 RES     
   19010 C1        -263.3259   -66.4075   168.6327 C1            1 RES     
   19011 C1        -264.3206   -65.6369   167.9572 C1            1 RES     
   19012 N3        -265.6026   -66.0364   168.1903 N3            1 RES     
   19013 S2        -265.4072   -67.3145   169.2261 S2            1 RES     
   19014 N3        -263.7699   -67.4218   169.4143 N3            1 RES     
   19015 S2        -268.3124   -65.3969   164.0647 S2            1 RES     
   19016 C1        -268.0617   -65.6637   162.4115 C1            1 RES     
   19017 C1        -267.1617   -64.7192   161.9031 C1            1 RES     
   19018 C0        -266.4825   -61.5846   161.9602 C0            1 RES     
   19019 C0        -267.7981   -61.1327   161.1481 C0            1 RES     
   19020 C0        -268.4154   -62.1950   160.1847 C0            1 RES     
   19021 C0        -269.8828   -62.4911   160.5478 C0            1 RES     
   19022 C0        -270.5030   -63.6619   159.7641 C0            1 RES     
   19023 C0        -271.9947   -63.7887   160.1278 C0            1 RES     
   19024 C0        -272.6477   -65.0501   159.5491 C0            1 RES     
   19025 C0        -274.1333   -65.1017   159.9131 C0            1 RES     
   19026 C0        -267.3415   -59.8459   160.3268 C0            1 RES     
   19027 C0        -268.2108   -58.9941   159.3493 C0            1 RES     
   19028 C0        -268.3565   -59.5034   157.8824 C0            1 RES     
   19029 C0        -268.5680   -58.3229   156.8852 C0            1 RES     
   19030 C0        -268.6135   -58.7613   155.4066 C0            1 RES     
   19031 C0        -268.3154   -57.6220   154.3974 C0            1 RES     
   19032 C0        -269.2558   -56.4100   154.4669 C0            1 RES     
   19033 C0        -268.8865   -55.3766   153.3939 C0            1 RES     
   19034 C0        -264.4950   -63.0690   162.1663 C0            1 RES     
   19035 C0        -263.2863   -62.0232   161.8031 C0            1 RES     
   19036 C0        -263.7399   -60.8617   160.8306 C0            1 RES     
   19037 C0        -262.6791   -60.0049   160.1471 C0            1 RES     
   19038 C0        -263.2064   -59.0115   159.0961 C0            1 RES     
   19039 C0        -263.9499   -57.8107   159.7171 C0            1 RES     
   19040 C0        -264.0085   -56.6053   158.7614 C0            1 RES     
   19041 C0        -264.8569   -56.8423   157.5241 C0            1 RES     
   19042 C0        -262.2856   -61.5322   162.9460 C0            1 RES     
   19043 C0        -260.8282   -61.3118   162.3880 C0            1 RES     
   19044 C0        -259.5942   -60.9963   163.2775 C0            1 RES     
   19045 C0        -259.2749   -59.5078   163.6360 C0            1 RES     
   19046 C0        -257.7260   -59.3411   163.7265 C0            1 RES     
   19047 C0        -257.1783   -57.9335   164.0470 C0            1 RES     
   19048 C0        -255.6436   -57.9243   163.8342 C0            1 RES     
   19049 C0        -254.9851   -56.5900   164.1815 C0            1 RES     
   19050 H4        -263.6495   -62.8959   164.9067 H4            1 RES     
   19051 H5        -262.1820   -63.5492   166.3405 H5            1 RES     
   19052 H4        -266.8031   -64.7572   160.8868 H4            1 RES     
   19053 H6        -266.2134   -60.6659   162.5242 H6            1 RES     
   19054 H6        -265.9442   -61.7079   161.0422 H6            1 RES     
   19055 H6        -268.5724   -60.8094   161.8782 H6            1 RES     
   19056 H6        -268.3744   -61.8717   159.1292 H6            1 RES     
   19057 H6        -267.8146   -63.0969   160.1717 H6            1 RES     
   19058 H6        -269.9435   -62.7501   161.6278 H6            1 RES     
   19059 H6        -270.4717   -61.5648   160.3667 H6            1 RES     
   19060 H6        -270.4070   -63.5056   158.6670 H6            1 RES     
   19061 H6        -269.9632   -64.5946   160.0404 H6            1 RES     
   19062 H6        -272.5280   -62.8868   159.7521 H6            1 RES     
   19063 H6        -272.1022   -63.8293   161.2338 H6            1 RES     
   19064 H6        -272.5467   -65.0700   158.4428 H6            1 RES     
   19065 H6        -272.1451   -65.9477   159.9718 H6            1 RES     
   19066 H6        -274.2665   -65.0745   161.0163 H6            1 RES     
   19067 H6        -274.6695   -64.2375   159.4650 H6            1 RES     
   19068 H6        -274.5875   -66.0383   159.5270 H6            1 RES     
   19069 H6        -267.0200   -59.1245   161.1098 H6            1 RES     
   19070 H6        -266.4341   -60.0942   159.7323 H6            1 RES     
   19071 H6        -269.1790   -58.6787   159.7875 H6            1 RES     
   19072 H6        -267.5973   -58.0705   159.2506 H6            1 RES     
   19073 H6        -267.3985   -59.9822   157.5776 H6            1 RES     
   19074 H6        -269.1707   -60.2516   157.7995 H6            1 RES     
   19075 H6        -269.4766   -57.7348   157.1336 H6            1 RES     
   19076 H6        -267.6992   -57.6547   156.9826 H6            1 RES     
   19077 H6        -267.8158   -59.5157   155.2295 H6            1 RES     
   19078 H6        -269.5921   -59.2405   155.1917 H6            1 RES     
   19079 H6        -268.3652   -58.0532   153.3730 H6            1 RES     
   19080 H6        -267.2740   -57.2645   154.5610 H6            1 RES     
   19081 H6        -269.1698   -55.9259   155.4626 H6            1 RES     
   19082 H6        -270.3053   -56.7330   154.3068 H6            1 RES     
   19083 H6        -268.9902   -55.8152   152.3777 H6            1 RES     
   19084 H6        -267.8395   -55.0266   153.5257 H6            1 RES     
   19085 H6        -269.5601   -54.4962   153.4646 H6            1 RES     
   19086 H6        -264.0311   -63.9171   162.7161 H6            1 RES     
   19087 H6        -264.7629   -63.5010   161.1750 H6            1 RES     
   19088 H6        -262.6495   -62.6930   161.1854 H6            1 RES     
   19089 H6        -264.3988   -60.1558   161.3709 H6            1 RES     
   19090 H6        -264.2555   -61.3468   159.9742 H6            1 RES     
   19091 H6        -262.1675   -59.3751   160.8961 H6            1 RES     
   19092 H6        -261.9782   -60.6965   159.6314 H6            1 RES     
   19093 H6        -262.2954   -58.6115   158.6026 H6            1 RES     
   19094 H6        -263.8198   -59.5194   158.3189 H6            1 RES     
   19095 H6        -263.3705   -57.4541   160.5949 H6            1 RES     
   19096 H6        -264.9604   -58.1026   160.0729 H6            1 RES     
   19097 H6        -262.9756   -56.3374   158.4492 H6            1 RES     
   19098 H6        -264.4356   -55.7365   159.3076 H6            1 RES     
   19099 H6        -264.8375   -55.9361   156.8812 H6            1 RES     
   19100 H6        -265.8905   -57.0189   157.8541 H6            1 RES     
   19101 H6        -264.4893   -57.7039   156.9300 H6            1 RES     
   19102 H6        -262.6962   -60.6615   163.5028 H6            1 RES     
   19103 H6        -262.1229   -62.3662   163.6477 H6            1 RES     
   19104 H6        -260.5832   -62.2905   161.9220 H6            1 RES     
   19105 H6        -260.7434   -60.5898   161.5829 H6            1 RES     
   19106 H6        -258.7720   -61.2880   162.5859 H6            1 RES     
   19107 H6        -259.4977   -61.6688   164.1549 H6            1 RES     
   19108 H6        -259.7954   -59.2074   164.5712 H6            1 RES     
   19109 H6        -259.6085   -58.8354   162.8157 H6            1 RES     
   19110 H6        -257.3241   -59.6094   162.7231 H6            1 RES     
   19111 H6        -257.3111   -60.0550   164.4703 H6            1 RES     
   19112 H6        -257.4258   -57.6678   165.0974 H6            1 RES     
   19113 H6        -257.6282   -57.1776   163.3672 H6            1 RES     
   19114 H6        -255.4258   -58.1434   162.7644 H6            1 RES     
   19115 H6        -255.1678   -58.7144   164.4545 H6            1 RES     
   19116 H6        -255.1162   -56.3617   165.2595 H6            1 RES     
   19117 H6        -255.4090   -55.7665   163.5701 H6            1 RES     
   19118 H6        -253.8938   -56.6544   163.9698 H6            1 RES     
   19119 C0        -269.2997   -73.1856   157.2466 C0            1 RES     
   19120 C1        -269.5204   -73.9539   158.3556 C1            1 RES     
   19121 C1        -270.5359   -73.5092   159.1223 C1            1 RES     
   19122 C1        -271.0364   -72.4069   158.6587 C1            1 RES     
   19123 C1        -270.3165   -71.9892   157.4429 C1            1 RES     
   19124 C1        -269.7779   -70.7026   158.0503 C1            1 RES     
   19125 C1        -270.3873   -70.2462   159.1832 C1            1 RES     
   19126 S2        -271.8687   -71.2087   159.6410 S2            1 RES     
   19127 C1        -269.8521   -69.0906   160.0187 C1            1 RES     
   19128 C1        -268.8764   -68.1903   159.4982 C1            1 RES     
   19129 N3        -268.3733   -67.1669   160.2478 N3            1 RES     
   19130 C1        -268.7427   -66.9475   161.5295 C1            1 RES     
   19131 C1        -269.6740   -67.7972   162.1135 C1            1 RES     
   19132 C1        -270.2392   -68.8688   161.3573 C1            1 RES     
   19133 N3        -271.1307   -69.6384   162.0432 N3            1 RES     
   19134 S2        -271.1577   -68.9260   163.5386 S2            1 RES     
   19135 N3        -270.0894   -67.6744   163.3977 N3            1 RES     
   19136 S2        -270.7312   -74.3681   160.5454 S2            1 RES     
   19137 C1        -269.4442   -75.4056   160.1787 C1            1 RES     
   19138 C1        -268.8520   -75.0275   158.9675 C1            1 RES     
   19139 C0        -269.5682   -74.1249   155.9738 C0            1 RES     
   19140 C0        -270.1563   -75.5554   155.5239 C0            1 RES     
   19141 C0        -269.6055   -76.8010   156.2873 C0            1 RES     
   19142 C0        -270.7443   -77.5932   156.9569 C0            1 RES     
   19143 C0        -270.2655   -78.7264   157.8823 C0            1 RES     
   19144 C0        -271.4841   -79.5137   158.4007 C0            1 RES     
   19145 C0        -271.1205   -80.5351   159.4857 C0            1 RES     
   19146 C0        -272.3628   -81.3086   159.9337 C0            1 RES     
   19147 C0        -269.8083   -75.6636   153.9729 C0            1 RES     
   19148 C0        -270.1307   -76.8534   153.0152 C0            1 RES     
   19149 C0        -269.1456   -78.0625   153.0092 C0            1 RES     
   19150 C0        -269.1174   -78.7708   151.6199 C0            1 RES     
   19151 C0        -268.0812   -79.9101   151.5260 C0            1 RES     
   19152 C0        -267.6744   -80.2800   150.0759 C0            1 RES     
   19153 C0        -268.8211   -80.7283   149.1580 C0            1 RES     
   19154 C0        -268.2864   -81.1078   147.7703 C0            1 RES     
   19155 C0        -267.7583   -72.7913   157.0423 C0            1 RES     
   19156 C0        -267.0767   -72.0839   155.7303 C0            1 RES     
   19157 C0        -267.2259   -72.9442   154.4118 C0            1 RES     
   19158 C0        -266.3815   -72.5907   153.1917 C0            1 RES     
   19159 C0        -266.4721   -73.5789   152.0149 C0            1 RES     
   19160 C0        -267.8151   -73.4998   151.2596 C0            1 RES     
   19161 C0        -267.7147   -74.0698   149.8331 C0            1 RES     
   19162 C0        -267.4617   -75.5667   149.7855 C0            1 RES     
   19163 C0        -267.2591   -70.5173   155.4833 C0            1 RES     
   19164 C0        -265.9799   -69.8802   154.8186 C0            1 RES     
   19165 C0        -265.7791   -68.3547   154.6032 C0            1 RES     
   19166 C0        -266.3246   -67.6924   153.2957 C0            1 RES     
   19167 C0        -265.3592   -66.5371   152.8854 C0            1 RES     
   19168 C0        -265.6920   -65.7541   151.5968 C0            1 RES     
   19169 C0        -264.4925   -64.8443   151.2305 C0            1 RES     
   19170 C0        -264.7372   -63.9749   149.9980 C0            1 RES     
   19171 H4        -268.9111   -70.2340   157.6639 H4            1 RES     
   19172 H5        -268.5237   -68.2811   158.4837 H5            1 RES     
   19173 H4        -267.9644   -75.5084   158.5881 H4            1 RES     
   19174 H6        -270.0646   -73.4223   155.2707 H6            1 RES     
   19175 H6        -268.5839   -74.4223   155.6731 H6            1 RES     
   19176 H6        -271.2641   -75.5298   155.6200 H6            1 RES     
   19177 H6        -269.0490   -77.4838   155.6206 H6            1 RES     
   19178 H6        -268.8451   -76.5082   157.0020 H6            1 RES     
   19179 H6        -271.3532   -76.8985   157.5764 H6            1 RES     
   19180 H6        -271.3863   -78.0129   156.1512 H6            1 RES     
   19181 H6        -269.5836   -79.4218   157.3450 H6            1 RES     
   19182 H6        -269.7138   -78.2736   158.7356 H6            1 RES     
   19183 H6        -271.9590   -80.0367   157.5404 H6            1 RES     
   19184 H6        -272.2222   -78.8056   158.8366 H6            1 RES     
   19185 H6        -270.3645   -81.2556   159.1066 H6            1 RES     
   19186 H6        -270.6975   -79.9994   160.3638 H6            1 RES     
   19187 H6        -273.1421   -80.6115   160.3111 H6            1 RES     
   19188 H6        -272.7815   -81.8897   159.0840 H6            1 RES     
   19189 H6        -272.0981   -82.0147   160.7487 H6            1 RES     
   19190 H6        -270.3296   -74.7935   153.5167 H6            1 RES     
   19191 H6        -268.7183   -75.4912   153.8295 H6            1 RES     
   19192 H6        -271.1922   -77.1707   153.0546 H6            1 RES     
   19193 H6        -269.9821   -76.3842   152.0168 H6            1 RES     
   19194 H6        -268.1128   -77.6778   153.1679 H6            1 RES     
   19195 H6        -269.3878   -78.7778   153.8212 H6            1 RES     
   19196 H6        -270.1214   -79.1478   151.3321 H6            1 RES     
   19197 H6        -268.8164   -78.0175   150.8764 H6            1 RES     
   19198 H6        -267.1371   -79.5798   152.0120 H6            1 RES     
   19199 H6        -268.4567   -80.7992   152.0756 H6            1 RES     
   19200 H6        -266.9223   -81.0980   150.1317 H6            1 RES     
   19201 H6        -267.1788   -79.3993   149.6091 H6            1 RES     
   19202 H6        -269.5498   -79.8992   149.0370 H6            1 RES     
   19203 H6        -269.3372   -81.6078   149.5957 H6            1 RES     
   19204 H6        -267.5742   -81.9580   147.8457 H6            1 RES     
   19205 H6        -267.7645   -80.2468   147.2986 H6            1 RES     
   19206 H6        -269.1250   -81.4124   147.1088 H6            1 RES     
   19207 H6        -267.4584   -72.1856   157.9255 H6            1 RES     
   19208 H6        -267.1786   -73.7364   157.1506 H6            1 RES     
   19209 H6        -266.0061   -72.1678   156.0174 H6            1 RES     
   19210 H6        -268.2777   -72.9261   154.0690 H6            1 RES     
   19211 H6        -266.8823   -73.9710   154.6613 H6            1 RES     
   19212 H6        -266.7154   -71.6250   152.7729 H6            1 RES     
   19213 H6        -265.3206   -72.5605   153.5219 H6            1 RES     
   19214 H6        -265.6805   -73.2509   151.3083 H6            1 RES     
   19215 H6        -266.2371   -74.6198   152.3307 H6            1 RES     
   19216 H6        -268.0797   -72.4298   151.1240 H6            1 RES     
   19217 H6        -268.6316   -73.9811   151.8380 H6            1 RES     
   19218 H6        -266.9004   -73.5451   149.2877 H6            1 RES     
   19219 H6        -268.6683   -73.8671   149.2993 H6            1 RES     
   19220 H6        -267.3883   -75.8976   148.7272 H6            1 RES     
   19221 H6        -268.3212   -76.0679   150.2532 H6            1 RES     
   19222 H6        -266.5230   -75.8438   150.3074 H6            1 RES     
   19223 H6        -268.2083   -70.2952   154.9483 H6            1 RES     
   19224 H6        -267.2679   -70.0096   156.4615 H6            1 RES     
   19225 H6        -265.1622   -70.1654   155.5150 H6            1 RES     
   19226 H6        -265.6933   -70.3045   153.8622 H6            1 RES     
   19227 H6        -264.6731   -68.3159   154.4824 H6            1 RES     
   19228 H6        -266.0016   -67.7476   155.5050 H6            1 RES     
   19229 H6        -267.3724   -67.3484   153.4358 H6            1 RES     
   19230 H6        -266.3029   -68.4227   152.4575 H6            1 RES     
   19231 H6        -264.3644   -67.0075   152.7144 H6            1 RES     
   19232 H6        -265.2620   -65.8103   153.7204 H6            1 RES     
   19233 H6        -266.6068   -65.1437   151.7576 H6            1 RES     
   19234 H6        -265.8684   -66.4543   150.7515 H6            1 RES     
   19235 H6        -263.6038   -65.4831   151.0256 H6            1 RES     
   19236 H6        -264.2489   -64.1729   152.0821 H6            1 RES     
   19237 H6        -265.5738   -63.2692   150.1811 H6            1 RES     
   19238 H6        -264.9624   -64.6000   149.1090 H6            1 RES     
   19239 H6        -263.8212   -63.3799   149.7822 H6            1 RES     
   19240 C0        -264.3698   -80.8814   165.5688 C0            1 RES     
   19241 C1        -264.9204   -80.3405   166.6970 C1            1 RES     
   19242 C1        -266.2640   -80.4403   166.7385 C1            1 RES     
   19243 C1        -266.7360   -80.9780   165.6575 C1            1 RES     
   19244 C1        -265.6418   -81.2941   164.7229 C1            1 RES     
   19245 C1        -266.1122   -80.3283   163.6458 C1            1 RES     
   19246 C1        -267.4007   -79.8854   163.7264 C1            1 RES     
   19247 S2        -268.3615   -80.7033   165.0448 S2            1 RES     
   19248 C1        -267.9649   -78.7759   162.8486 C1            1 RES     
   19249 C1        -267.2961   -78.3596   161.6599 C1            1 RES     
   19250 N3        -267.7814   -77.3500   160.8805 N3            1 RES     
   19251 C1        -268.9061   -76.6650   161.1858 C1            1 RES     
   19252 C1        -269.6015   -76.9990   162.3412 C1            1 RES     
   19253 C1        -269.1377   -78.0622   163.1744 C1            1 RES     
   19254 N3        -269.8973   -78.2860   164.2836 N3            1 RES     
   19255 S2        -271.0956   -77.1506   164.1444 S2            1 RES     
   19256 N3        -270.7242   -76.3560   162.7449 N3            1 RES     
   19257 S2        -266.9561   -79.6694   168.0530 S2            1 RES     
   19258 C1        -265.4494   -79.1715   168.6440 C1            1 RES     
   19259 C1        -264.4326   -79.5775   167.7712 C1            1 RES     
   19260 C0        -263.4309   -82.0910   166.0481 C0            1 RES     
   19261 C0        -263.0386   -82.9969   167.3210 C0            1 RES     
   19262 C0        -262.6623   -82.2289   168.6271 C0            1 RES     
   19263 C0        -263.5764   -82.6380   169.7976 C0            1 RES     
   19264 C0        -263.3912   -81.7903   171.0691 C0            1 RES     
   19265 C0        -264.2701   -82.3616   172.1981 C0            1 RES     
   19266 C0        -264.3045   -81.4658   173.4426 C0            1 RES     
   19267 C0        -265.1620   -82.1018   174.5392 C0            1 RES     
   19268 C0        -261.8047   -83.8746   166.8250 C0            1 RES     
   19269 C0        -261.0043   -84.9284   167.6530 C0            1 RES     
   19270 C0        -259.8664   -84.4037   168.5815 C0            1 RES     
   19271 C0        -258.7339   -85.4623   168.7531 C0            1 RES     
   19272 C0        -257.5322   -84.9561   169.5778 C0            1 RES     
   19273 C0        -256.2226   -85.7542   169.3466 C0            1 RES     
   19274 C0        -256.2959   -87.2561   169.6584 C0            1 RES     
   19275 C0        -254.9317   -87.9224   169.4336 C0            1 RES     
   19276 C0        -263.3129   -79.9128   164.8493 C0            1 RES     
   19277 C0        -262.2932   -80.2876   163.6220 C0            1 RES     
   19278 C0        -261.2719   -81.4373   163.9909 C0            1 RES     
   19279 C0        -260.0644   -81.6786   163.0908 C0            1 RES     
   19280 C0        -259.0420   -82.7030   163.6150 C0            1 RES     
   19281 C0        -259.5466   -84.1587   163.5331 C0            1 RES     
   19282 C0        -258.3919   -85.1766   163.5511 C0            1 RES     
   19283 C0        -257.6340   -85.2234   164.8666 C0            1 RES     
   19284 C0        -262.8469   -80.3931   162.1285 C0            1 RES     
   19285 C0        -261.7805   -79.9030   161.0765 C0            1 RES     
   19286 C0        -262.0707   -79.7265   159.5605 C0            1 RES     
   19287 C0        -261.8946   -80.9514   158.6042 C0            1 RES     
   19288 C0        -261.3945   -80.4319   157.2203 C0            1 RES     
   19289 C0        -261.1259   -81.4813   156.1199 C0            1 RES     
   19290 C0        -260.3987   -80.7995   154.9337 C0            1 RES     
   19291 C0        -260.1348   -81.7373   153.7566 C0            1 RES     
   19292 H4        -265.4424   -79.9460   162.9208 H4            1 RES     
   19293 H5        -266.3943   -78.8498   161.3308 H5            1 RES     
   19294 H4        -263.4024   -79.2949   167.9193 H4            1 RES     
   19295 H6        -263.6058   -82.8465   165.2525 H6            1 RES     
   19296 H6        -262.4490   -81.6625   166.0362 H6            1 RES     
   19297 H6        -263.8810   -83.6906   167.5361 H6            1 RES     
   19298 H6        -261.6130   -82.4048   168.9245 H6            1 RES     
   19299 H6        -262.6769   -81.1580   168.4609 H6            1 RES     
   19300 H6        -264.6378   -82.5304   169.4829 H6            1 RES     
   19301 H6        -263.3764   -83.7079   170.0277 H6            1 RES     
   19302 H6        -262.3289   -81.7890   171.3991 H6            1 RES     
   19303 H6        -263.6957   -80.7448   170.8417 H6            1 RES     
   19304 H6        -263.8819   -83.3678   172.4735 H6            1 RES     
   19305 H6        -265.3143   -82.4723   171.8322 H6            1 RES     
   19306 H6        -263.2782   -81.3038   173.8361 H6            1 RES     
   19307 H6        -264.7447   -80.4811   173.1712 H6            1 RES     
   19308 H6        -266.1950   -82.2841   174.1711 H6            1 RES     
   19309 H6        -264.7195   -83.0689   174.8614 H6            1 RES     
   19310 H6        -265.2162   -81.4271   175.4193 H6            1 RES     
   19311 H6        -262.2102   -84.4505   165.9643 H6            1 RES     
   19312 H6        -261.0188   -83.2021   166.4147 H6            1 RES     
   19313 H6        -261.6532   -85.6734   168.1559 H6            1 RES     
   19314 H6        -260.4614   -85.4779   166.8515 H6            1 RES     
   19315 H6        -259.3838   -83.5290   168.0897 H6            1 RES     
   19316 H6        -260.2696   -84.0824   169.5633 H6            1 RES     
   19317 H6        -259.1201   -86.4081   169.1884 H6            1 RES     
   19318 H6        -258.3456   -85.6894   167.7489 H6            1 RES     
   19319 H6        -257.2921   -83.9165   169.2646 H6            1 RES     
   19320 H6        -257.8035   -84.9356   170.6547 H6            1 RES     
   19321 H6        -255.4296   -85.2974   169.9794 H6            1 RES     
   19322 H6        -255.9149   -85.6338   168.2836 H6            1 RES     
   19323 H6        -257.0368   -87.7417   168.9887 H6            1 RES     
   19324 H6        -256.6006   -87.4111   170.7141 H6            1 RES     
   19325 H6        -254.1668   -87.4834   170.1101 H6            1 RES     
   19326 H6        -254.5955   -87.7900   168.3822 H6            1 RES     
   19327 H6        -255.0000   -89.0111   169.6435 H6            1 RES     
   19328 H6        -263.8680   -79.0008   164.5380 H6            1 RES     
   19329 H6        -262.6256   -79.5536   165.6492 H6            1 RES     
   19330 H6        -261.6901   -79.3541   163.5988 H6            1 RES     
   19331 H6        -261.8035   -82.4058   164.0522 H6            1 RES     
   19332 H6        -260.8062   -81.1510   164.9581 H6            1 RES     
   19333 H6        -260.3971   -82.0865   162.1200 H6            1 RES     
   19334 H6        -259.5366   -80.7068   162.9789 H6            1 RES     
   19335 H6        -258.1767   -82.6183   162.9240 H6            1 RES     
   19336 H6        -258.6875   -82.4463   164.6381 H6            1 RES     
   19337 H6        -260.0430   -84.3040   162.5503 H6            1 RES     
   19338 H6        -260.2943   -84.3712   164.3260 H6            1 RES     
   19339 H6        -257.6820   -84.9367   162.7298 H6            1 RES     
   19340 H6        -258.8058   -86.1901   163.3588 H6            1 RES     
   19341 H6        -256.8119   -85.9677   164.7954 H6            1 RES     
   19342 H6        -258.3364   -85.5468   165.6479 H6            1 RES     
   19343 H6        -257.1958   -84.2380   165.1260 H6            1 RES     
   19344 H6        -263.2641   -81.4020   161.9172 H6            1 RES     
   19345 H6        -263.6398   -79.6390   161.9974 H6            1 RES     
   19346 H6        -261.5307   -78.8779   161.4257 H6            1 RES     
   19347 H6        -260.8375   -80.4392   161.0867 H6            1 RES     
   19348 H6        -261.2380   -79.0436   159.2779 H6            1 RES     
   19349 H6        -263.0027   -79.1619   159.3513 H6            1 RES     
   19350 H6        -262.8395   -81.5323   158.5300 H6            1 RES     
   19351 H6        -261.0964   -81.6248   158.9859 H6            1 RES     
   19352 H6        -260.4210   -79.9254   157.4103 H6            1 RES     
   19353 H6        -262.1064   -79.6791   156.8187 H6            1 RES     
   19354 H6        -262.0888   -81.9222   155.7827 H6            1 RES     
   19355 H6        -260.4729   -82.2928   156.5083 H6            1 RES     
   19356 H6        -259.4165   -80.4116   155.2869 H6            1 RES     
   19357 H6        -260.9980   -79.9407   154.5616 H6            1 RES     
   19358 H6        -261.0919   -82.0964   153.3247 H6            1 RES     
   19359 H6        -259.5167   -82.6043   154.0698 H6            1 RES     
   19360 H6        -259.5818   -81.1836   152.9645 H6            1 RES     
   19361 C0        -263.1883   -72.5140   174.5898 C0            1 RES     
   19362 C1        -264.4641   -72.0232   174.5800 C1            1 RES     
   19363 C1        -265.3916   -72.9342   174.9357 C1            1 RES     
   19364 C1        -264.8606   -74.0975   175.1486 C1            1 RES     
   19365 C1        -263.4065   -74.0468   174.9167 C1            1 RES     
   19366 C1        -263.4310   -75.0177   173.7458 C1            1 RES     
   19367 C1        -264.5442   -75.7949   173.6048 C1            1 RES     
   19368 S2        -265.7221   -75.6223   174.9879 S2            1 RES     
   19369 C1        -264.8095   -76.6707   172.3872 C1            1 RES     
   19370 C1        -263.7670   -77.0030   171.4727 C1            1 RES     
   19371 N3        -264.0006   -77.7668   170.3662 N3            1 RES     
   19372 C1        -265.2263   -78.2404   170.0487 C1            1 RES     
   19373 C1        -266.2973   -77.9399   170.8810 C1            1 RES     
   19374 C1        -266.0919   -77.1595   172.0593 C1            1 RES     
   19375 N3        -267.2201   -76.9223   172.7863 N3            1 RES     
   19376 S2        -268.3908   -77.7069   171.9154 S2            1 RES     
   19377 N3        -267.5664   -78.3474   170.6355 N3            1 RES     
   19378 S2        -266.9652   -72.3797   174.8042 S2            1 RES     
   19379 C1        -266.4582   -70.8556   174.2681 C1            1 RES     
   19380 C1        -265.0629   -70.8256   174.1543 C1            1 RES     
   19381 C0        -262.3800   -71.6757   175.6936 C0            1 RES     
   19382 C0        -262.5520   -70.6118   176.8907 C0            1 RES     
   19383 C0        -263.3729   -69.3255   176.5605 C0            1 RES     
   19384 C0        -264.5783   -69.1747   177.5078 C0            1 RES     
   19385 C0        -265.5408   -68.0351   177.1278 C0            1 RES     
   19386 C0        -266.6364   -67.9099   178.2037 C0            1 RES     
   19387 C0        -267.7536   -66.9351   177.8111 C0            1 RES     
   19388 C0        -268.7905   -66.8263   178.9315 C0            1 RES     
   19389 C0        -261.0622   -70.2226   177.3001 C0            1 RES     
   19390 C0        -260.6218   -69.2121   178.4055 C0            1 RES     
   19391 C0        -260.5893   -67.6991   178.0286 C0            1 RES     
   19392 C0        -259.5128   -66.9273   178.8520 C0            1 RES     
   19393 C0        -259.3652   -65.4464   178.4448 C0            1 RES     
   19394 C0        -258.0140   -64.8064   178.8575 C0            1 RES     
   19395 C0        -257.7026   -64.8233   180.3611 C0            1 RES     
   19396 C0        -256.3658   -64.1245   180.6445 C0            1 RES     
   19397 C0        -262.3659   -72.1749   173.2550 C0            1 RES     
   19398 C0        -260.7628   -72.3914   172.9907 C0            1 RES     
   19399 C0        -259.8513   -71.5674   173.9862 C0            1 RES     
   19400 C0        -258.3668   -71.4045   173.6760 C0            1 RES     
   19401 C0        -257.5960   -70.4533   174.6090 C0            1 RES     
   19402 C0        -257.3616   -71.0426   176.0155 C0            1 RES     
   19403 C0        -256.1904   -70.3596   176.7447 C0            1 RES     
   19404 C0        -256.4499   -68.9052   177.0973 C0            1 RES     
   19405 C0        -260.1953   -73.8507   172.6795 C0            1 RES     
   19406 C0        -258.9861   -73.8018   171.6699 C0            1 RES     
   19407 C0        -258.3247   -75.0597   171.0423 C0            1 RES     
   19408 C0        -257.1638   -75.7725   171.8105 C0            1 RES     
   19409 C0        -256.1576   -76.3474   170.7654 C0            1 RES     
   19410 C0        -254.9085   -77.0770   171.3054 C0            1 RES     
   19411 C0        -253.9246   -77.3339   170.1363 C0            1 RES     
   19412 C0        -252.6728   -78.1074   170.5481 C0            1 RES     
   19413 H4        -262.6596   -75.0234   173.0211 H4            1 RES     
   19414 H5        -262.7544   -76.6758   171.6440 H5            1 RES     
   19415 H4        -264.5381   -69.9731   173.7534 H4            1 RES     
   19416 H6        -261.7360   -72.4578   176.1496 H6            1 RES     
   19417 H6        -261.8446   -70.9522   175.1124 H6            1 RES     
   19418 H6        -263.0167   -71.1275   177.7597 H6            1 RES     
   19419 H6        -262.7570   -68.4109   176.6294 H6            1 RES     
   19420 H6        -263.6761   -69.3198   175.5200 H6            1 RES     
   19421 H6        -265.1667   -70.1185   177.4981 H6            1 RES     
   19422 H6        -264.1850   -69.0068   178.5348 H6            1 RES     
   19423 H6        -265.0012   -67.0661   177.0423 H6            1 RES     
   19424 H6        -265.9997   -68.2763   176.1436 H6            1 RES     
   19425 H6        -266.1629   -67.5716   179.1527 H6            1 RES     
   19426 H6        -267.1009   -68.9056   178.3744 H6            1 RES     
   19427 H6        -267.3373   -65.9257   177.6059 H6            1 RES     
   19428 H6        -268.2579   -67.3091   176.8930 H6            1 RES     
   19429 H6        -269.2194   -67.8248   179.1653 H6            1 RES     
   19430 H6        -268.3221   -66.4123   179.8504 H6            1 RES     
   19431 H6        -269.6166   -66.1524   178.6214 H6            1 RES     
   19432 H6        -260.6056   -71.1878   177.6113 H6            1 RES     
   19433 H6        -260.5094   -69.8876   176.3943 H6            1 RES     
   19434 H6        -261.1087   -69.3956   179.3843 H6            1 RES     
   19435 H6        -259.5485   -69.4768   178.5364 H6            1 RES     
   19436 H6        -260.2731   -67.6064   176.9649 H6            1 RES     
   19437 H6        -261.5913   -67.2383   178.1436 H6            1 RES     
   19438 H6        -259.7006   -67.0026   179.9438 H6            1 RES     
   19439 H6        -258.5421   -67.4026   178.6453 H6            1 RES     
   19440 H6        -259.3888   -65.3734   177.3354 H6            1 RES     
   19441 H6        -260.2224   -64.8645   178.8449 H6            1 RES     
   19442 H6        -258.0162   -63.7508   178.5060 H6            1 RES     
   19443 H6        -257.1918   -65.3358   178.3256 H6            1 RES     
   19444 H6        -257.6307   -65.8728   180.7168 H6            1 RES     
   19445 H6        -258.5054   -64.3014   180.9219 H6            1 RES     
   19446 H6        -256.4079   -63.0593   180.3295 H6            1 RES     
   19447 H6        -255.5352   -64.6243   180.1001 H6            1 RES     
   19448 H6        -256.1407   -64.1586   181.7317 H6            1 RES     
   19449 H6        -262.8993   -72.6657   172.4116 H6            1 RES     
   19450 H6        -262.5084   -71.0855   173.0703 H6            1 RES     
   19451 H6        -260.6714   -71.8744   172.0109 H6            1 RES     
   19452 H6        -259.9033   -72.0123   174.9979 H6            1 RES     
   19453 H6        -260.2244   -70.5210   173.9670 H6            1 RES     
   19454 H6        -257.8539   -72.3767   173.7812 H6            1 RES     
   19455 H6        -258.2878   -70.9977   172.6446 H6            1 RES     
   19456 H6        -256.5990   -70.3369   174.1337 H6            1 RES     
   19457 H6        -258.0701   -69.4476   174.6569 H6            1 RES     
   19458 H6        -257.0525   -72.1035   175.9051 H6            1 RES     
   19459 H6        -258.2918   -71.0210   176.6216 H6            1 RES     
   19460 H6        -255.2794   -70.4241   176.1108 H6            1 RES     
   19461 H6        -255.9881   -70.9095   177.6893 H6            1 RES     
   19462 H6        -255.5574   -68.4813   177.6058 H6            1 RES     
   19463 H6        -257.3004   -68.8746   177.7931 H6            1 RES     
   19464 H6        -256.6661   -68.2942   176.1971 H6            1 RES     
   19465 H6        -259.9853   -74.4158   173.6140 H6            1 RES     
   19466 H6        -260.9471   -74.3973   172.0874 H6            1 RES     
   19467 H6        -259.4036   -73.2521   170.7989 H6            1 RES     
   19468 H6        -258.1357   -73.2103   171.9921 H6            1 RES     
   19469 H6        -257.8214   -74.6002   170.1619 H6            1 RES     
   19470 H6        -259.0559   -75.7818   170.6238 H6            1 RES     
   19471 H6        -257.5643   -76.5509   172.4957 H6            1 RES     
   19472 H6        -256.5917   -75.0337   172.4131 H6            1 RES     
   19473 H6        -255.7806   -75.4762   170.1831 H6            1 RES     
   19474 H6        -256.6865   -77.0309   170.0668 H6            1 RES     
   19475 H6        -255.2120   -78.0375   171.7750 H6            1 RES     
   19476 H6        -254.3909   -76.4511   172.0645 H6            1 RES     
   19477 H6        -253.5977   -76.3553   169.7175 H6            1 RES     
   19478 H6        -254.4320   -77.9053   169.3293 H6            1 RES     
   19479 H6        -252.9445   -79.1211   170.9088 H6            1 RES     
   19480 H6        -252.1132   -77.5660   171.3390 H6            1 RES     
   19481 H6        -252.0050   -78.2201   169.6643 H6            1 RES     
   19482 C0        -270.9776   -64.2253   169.7514 C0            1 RES     
   19483 C1        -272.0442   -65.0520   169.5329 C1            1 RES     
   19484 C1        -272.5744   -65.5536   170.6661 C1            1 RES     
   19485 C1        -271.9049   -65.1809   171.7118 C1            1 RES     
   19486 C1        -270.7653   -64.3353   171.3155 C1            1 RES     
   19487 C1        -269.7067   -65.3078   171.8136 C1            1 RES     
   19488 C1        -270.1115   -66.2745   172.6879 C1            1 RES     
   19489 S2        -271.8462   -66.0817   173.2212 S2            1 RES     
   19490 C1        -269.2277   -67.4346   173.1271 C1            1 RES     
   19491 C1        -267.8161   -67.4073   172.9265 C1            1 RES     
   19492 N3        -267.0195   -68.4524   173.2946 N3            1 RES     
   19493 C1        -267.5067   -69.5845   173.8499 C1            1 RES     
   19494 C1        -268.8761   -69.6941   174.0569 C1            1 RES     
   19495 C1        -269.7426   -68.6152   173.7033 C1            1 RES     
   19496 N3        -271.0640   -68.8472   173.9432 N3            1 RES     
   19497 S2        -271.0589   -70.3744   174.5853 S2            1 RES     
   19498 N3        -269.4622   -70.7966   174.5840 N3            1 RES     
   19499 S2        -273.7979   -66.6648   170.4027 S2            1 RES     
   19500 C1        -273.6769   -66.5054   168.7212 C1            1 RES     
   19501 C1        -272.6433   -65.6188   168.3955 C1            1 RES     
   19502 C0        -271.3985   -62.7758   169.2068 C0            1 RES     
   19503 C0        -272.6448   -61.9088   168.6687 C0            1 RES     
   19504 C0        -273.4904   -62.5499   167.5234 C0            1 RES     
   19505 C0        -274.9689   -62.6891   167.9327 C0            1 RES     
   19506 C0        -275.8289   -63.4817   166.9318 C0            1 RES     
   19507 C0        -277.3001   -63.4567   167.3883 C0            1 RES     
   19508 C0        -278.1995   -64.3859   166.5636 C0            1 RES     
   19509 C0        -279.6510   -64.2906   167.0395 C0            1 RES     
   19510 C0        -271.9982   -60.5393   168.1737 C0            1 RES     
   19511 C0        -272.7406   -59.3214   167.5395 C0            1 RES     
   19512 C0        -273.0448   -59.3777   166.0109 C0            1 RES     
   19513 C0        -273.0819   -57.9510   165.3818 C0            1 RES     
   19514 C0        -273.2752   -57.9534   163.8511 C0            1 RES     
   19515 C0        -272.8200   -56.6460   163.1519 C0            1 RES     
   19516 C0        -273.5178   -55.3622   163.6243 C0            1 RES     
   19517 C0        -273.0151   -54.1494   162.8293 C0            1 RES     
   19518 C0        -269.7098   -64.5652   168.8293 C0            1 RES     
   19519 C0        -268.3478   -63.6732   168.6405 C0            1 RES     
   19520 C0        -268.6249   -62.2313   168.0530 C0            1 RES     
   19521 C0        -267.4575   -61.4063   167.5210 C0            1 RES     
   19522 C0        -267.8415   -60.0902   166.8210 C0            1 RES     
   19523 C0        -268.3226   -59.0006   167.8017 C0            1 RES     
   19524 C0        -268.2030   -57.5867   167.2047 C0            1 RES     
   19525 C0        -269.1367   -57.3326   166.0340 C0            1 RES     
   19526 C0        -267.2224   -63.6857   169.7726 C0            1 RES     
   19527 C0        -265.7766   -63.5631   169.1573 C0            1 RES     
   19528 C0        -264.4658   -63.7107   169.9782 C0            1 RES     
   19529 C0        -263.8627   -62.4511   170.6821 C0            1 RES     
   19530 C0        -262.3070   -62.5723   170.6670 C0            1 RES     
   19531 C0        -261.4961   -61.4163   171.2918 C0            1 RES     
   19532 C0        -259.9972   -61.6014   170.9454 C0            1 RES     
   19533 C0        -259.0897   -60.5404   171.5662 C0            1 RES     
   19534 H4        -268.7213   -65.2916   171.4274 H4            1 RES     
   19535 H5        -267.3341   -66.5448   172.4956 H5            1 RES     
   19536 H4        -272.3451   -65.4349   167.3755 H4            1 RES     
   19537 H6        -270.9396   -62.1042   169.9636 H6            1 RES     
   19538 H6        -270.9349   -62.7292   168.2421 H6            1 RES     
   19539 H6        -273.3121   -61.6757   169.5275 H6            1 RES     
   19540 H6        -273.4395   -61.9608   166.5903 H6            1 RES     
   19541 H6        -273.0666   -63.4996   167.2183 H6            1 RES     
   19542 H6        -275.0262   -63.2207   168.9080 H6            1 RES     
   19543 H6        -275.3855   -61.6650   168.0565 H6            1 RES     
   19544 H6        -275.7566   -63.0485   165.9098 H6            1 RES     
   19545 H6        -275.4573   -64.5298   166.9024 H6            1 RES     
   19546 H6        -277.6756   -62.4114   167.3136 H6            1 RES     
   19547 H6        -277.3622   -63.7808   168.4501 H6            1 RES     
   19548 H6        -278.1551   -64.1179   165.4863 H6            1 RES     
   19549 H6        -277.8513   -65.4349   166.6875 H6            1 RES     
   19550 H6        -279.7259   -64.5456   168.1189 H6            1 RES     
   19551 H6        -280.0396   -63.2609   166.8858 H6            1 RES     
   19552 H6        -280.2867   -64.9977   166.4662 H6            1 RES     
   19553 H6        -271.5140   -60.1233   169.0843 H6            1 RES     
   19554 H6        -271.1802   -60.7606   167.4523 H6            1 RES     
   19555 H6        -273.6133   -58.9837   168.1340 H6            1 RES     
   19556 H6        -271.9733   -58.5199   167.6287 H6            1 RES     
   19557 H6        -272.2061   -59.9051   165.5027 H6            1 RES     
   19558 H6        -273.9855   -59.9302   165.8119 H6            1 RES     
   19559 H6        -273.8547   -57.3127   165.8598 H6            1 RES     
   19560 H6        -272.1017   -57.4872   165.5686 H6            1 RES     
   19561 H6        -272.6386   -58.7506   163.4085 H6            1 RES     
   19562 H6        -274.3341   -58.1878   163.6113 H6            1 RES     
   19563 H6        -272.9953   -56.7655   162.0597 H6            1 RES     
   19564 H6        -271.7243   -56.5231   163.3046 H6            1 RES     
   19565 H6        -273.2986   -55.1907   164.6993 H6            1 RES     
   19566 H6        -274.6151   -55.4521   163.4847 H6            1 RES     
   19567 H6        -273.2442   -54.2693   161.7482 H6            1 RES     
   19568 H6        -271.9167   -54.0259   162.9490 H6            1 RES     
   19569 H6        -273.5116   -53.2240   163.1910 H6            1 RES     
   19570 H6        -269.3846   -65.5958   169.0918 H6            1 RES     
   19571 H6        -270.0979   -64.6587   167.7892 H6            1 RES     
   19572 H6        -267.8739   -64.2429   167.8119 H6            1 RES     
   19573 H6        -269.1174   -61.6025   168.8187 H6            1 RES     
   19574 H6        -269.2597   -62.3716   167.1519 H6            1 RES     
   19575 H6        -266.8050   -61.0989   168.3571 H6            1 RES     
   19576 H6        -266.9200   -62.0352   166.7786 H6            1 RES     
   19577 H6        -266.8964   -59.7254   166.3660 H6            1 RES     
   19578 H6        -268.5730   -60.2576   165.9992 H6            1 RES     
   19579 H6        -267.6477   -58.9986   168.6837 H6            1 RES     
   19580 H6        -269.3520   -59.2089   168.1621 H6            1 RES     
   19581 H6        -267.1540   -57.4169   166.8778 H6            1 RES     
   19582 H6        -268.4378   -56.8432   167.9969 H6            1 RES     
   19583 H6        -268.9810   -56.3008   165.6518 H6            1 RES     
   19584 H6        -270.1688   -57.4208   166.4019 H6            1 RES     
   19585 H6        -268.9612   -58.0464   165.2033 H6            1 RES     
   19586 H6        -267.4401   -62.9460   170.5740 H6            1 RES     
   19587 H6        -267.1832   -64.6951   170.2131 H6            1 RES     
   19588 H6        -265.7371   -64.4029   168.4305 H6            1 RES     
   19589 H6        -265.5979   -62.6721   168.5649 H6            1 RES     
   19590 H6        -263.7440   -63.9325   169.1602 H6            1 RES     
   19591 H6        -264.4541   -64.6044   170.6359 H6            1 RES     
   19592 H6        -264.2755   -62.3375   171.7080 H6            1 RES     
   19593 H6        -264.1047   -61.5342   170.1016 H6            1 RES     
   19594 H6        -262.0078   -62.6174   169.5952 H6            1 RES     
   19595 H6        -261.9963   -63.5208   171.1556 H6            1 RES     
   19596 H6        -261.6418   -61.4121   172.3935 H6            1 RES     
   19597 H6        -261.8305   -60.4398   170.8789 H6            1 RES     
   19598 H6        -259.8729   -61.5513   169.8400 H6            1 RES     
   19599 H6        -259.6464   -62.5982   171.2897 H6            1 RES     
   19600 H6        -259.1268   -60.5982   172.6738 H6            1 RES     
   19601 H6        -259.3831   -59.5228   171.2344 H6            1 RES     
   19602 H6        -258.0397   -60.7226   171.2435 H6            1 RES     
   19603 C0        -276.5113   -72.0128   161.9079 C0            1 RES     
   19604 C1        -276.8179   -73.0088   162.7928 C1            1 RES     
   19605 C1        -277.6980   -72.6309   163.7411 C1            1 RES     
   19606 C1        -278.0085   -71.3771   163.6314 C1            1 RES     
   19607 C1        -277.2811   -70.7661   162.5052 C1            1 RES     
   19608 C1        -276.4881   -69.8020   163.3747 C1            1 RES     
   19609 C1        -276.9505   -69.5802   164.6396 C1            1 RES     
   19610 S2        -278.5606   -70.3745   164.9668 S2            1 RES     
   19611 C1        -276.1743   -68.8022   165.6943 C1            1 RES     
   19612 C1        -275.0750   -67.9666   165.3382 C1            1 RES     
   19613 N3        -274.3586   -67.2852   166.2788 N3            1 RES     
   19614 C1        -274.6220   -67.3681   167.6021 C1            1 RES     
   19615 C1        -275.6654   -68.1804   168.0283 C1            1 RES     
   19616 C1        -276.4519   -68.8956   167.0745 C1            1 RES     
   19617 N3        -277.4369   -69.6666   167.6158 N3            1 RES     
   19618 S2        -277.2637   -69.3973   169.2412 S2            1 RES     
   19619 N3        -275.9915   -68.3481   169.3330 N3            1 RES     
   19620 S2        -277.9817   -73.8030   164.9017 S2            1 RES     
   19621 C1        -276.9254   -74.8968   164.1568 C1            1 RES     
   19622 C1        -276.3303   -74.3036   163.0367 C1            1 RES     
   19623 C0        -277.0061   -72.5097   160.4647 C0            1 RES     
   19624 C0        -277.8669   -73.6452   159.7135 C0            1 RES     
   19625 C0        -277.5193   -75.1252   160.0690 C0            1 RES     
   19626 C0        -278.7521   -75.8726   160.6119 C0            1 RES     
   19627 C0        -278.4472   -77.2787   161.1591 C0            1 RES     
   19628 C0        -279.7643   -77.9668   161.5656 C0            1 RES     
   19629 C0        -279.5447   -79.2918   162.3063 C0            1 RES     
   19630 C0        -280.8858   -79.9436   162.6511 C0            1 RES     
   19631 C0        -277.6166   -73.3795   158.1626 C0            1 RES     
   19632 C0        -278.1957   -74.1913   156.9616 C0            1 RES     
   19633 C0        -277.4506   -75.4970   156.5468 C0            1 RES     
   19634 C0        -277.6170   -75.7918   155.0242 C0            1 RES     
   19635 C0        -276.8129   -77.0157   154.5384 C0            1 RES     
   19636 C0        -276.5483   -77.0353   153.0104 C0            1 RES     
   19637 C0        -277.7988   -77.0201   152.1193 C0            1 RES     
   19638 C0        -277.4075   -77.0869   150.6367 C0            1 RES     
   19639 C0        -274.9349   -71.8363   161.6699 C0            1 RES     
   19640 C0        -274.1963   -70.9181   160.5306 C0            1 RES     
   19641 C0        -274.5615   -71.3472   159.0530 C0            1 RES     
   19642 C0        -273.7238   -70.8162   157.8941 C0            1 RES     
   19643 C0        -274.0484   -71.4150   156.5137 C0            1 RES     
   19644 C0        -275.3874   -70.9124   155.9352 C0            1 RES     
   19645 C0        -275.4593   -71.0777   154.4063 C0            1 RES     
   19646 C0        -275.4879   -72.5246   153.9450 C0            1 RES     
   19647 C0        -274.0992   -69.3360   160.7206 C0            1 RES     
   19648 C0        -272.7570   -68.7600   160.1285 C0            1 RES     
   19649 C0        -272.2898   -67.2885   160.3020 C0            1 RES     
   19650 C0        -272.7642   -66.2128   159.2707 C0            1 RES     
   19651 C0        -271.6231   -65.1641   159.0881 C0            1 RES     
   19652 C0        -271.8657   -64.0141   158.0866 C0            1 RES     
   19653 C0        -270.5378   -63.2486   157.8601 C0            1 RES     
   19654 C0        -270.6754   -62.0466   156.9268 C0            1 RES     
   19655 H4        -275.5688   -69.3943   163.0446 H4            1 RES     
   19656 H5        -274.7921   -67.8324   164.3068 H5            1 RES     
   19657 H4        -275.5645   -74.8010   162.4629 H4            1 RES     
   19658 H6        -277.3970   -71.5696   160.0199 H6            1 RES     
   19659 H6        -276.1080   -72.8706   160.0055 H6            1 RES     
   19660 H6        -278.9455   -73.4654   159.9166 H6            1 RES     
   19661 H6        -277.1290   -75.6807   159.1975 H6            1 RES     
   19662 H6        -276.6860   -75.1687   160.7605 H6            1 RES     
   19663 H6        -279.1939   -75.2842   161.4461 H6            1 RES     
   19664 H6        -279.4967   -75.9439   159.7885 H6            1 RES     
   19665 H6        -277.9300   -77.9023   160.3969 H6            1 RES     
   19666 H6        -277.7830   -77.1743   162.0454 H6            1 RES     
   19667 H6        -280.3664   -78.1484   160.6471 H6            1 RES     
   19668 H6        -280.3390   -77.2941   162.2392 H6            1 RES     
   19669 H6        -278.9521   -79.9947   161.6825 H6            1 RES     
   19670 H6        -278.9905   -79.0945   163.2502 H6            1 RES     
   19671 H6        -281.5057   -79.2587   163.2693 H6            1 RES     
   19672 H6        -281.4428   -80.1925   161.7222 H6            1 RES     
   19673 H6        -280.7179   -80.8796   163.2242 H6            1 RES     
   19674 H6        -277.9898   -72.3443   158.0011 H6            1 RES     
   19675 H6        -276.5212   -73.3558   157.9675 H6            1 RES     
   19676 H6        -279.2944   -74.3284   157.0162 H6            1 RES     
   19677 H6        -278.0097   -73.4973   156.1114 H6            1 RES     
   19678 H6        -276.3585   -75.3456   156.7028 H6            1 RES     
   19679 H6        -277.7822   -76.3577   157.1623 H6            1 RES     
   19680 H6        -278.6853   -75.9052   154.7435 H6            1 RES     
   19681 H6        -277.2175   -74.9235   154.4789 H6            1 RES     
   19682 H6        -275.8028   -76.9910   155.0029 H6            1 RES     
   19683 H6        -277.3194   -77.9473   154.8689 H6            1 RES     
   19684 H6        -275.9572   -77.9491   152.7791 H6            1 RES     
   19685 H6        -275.9215   -76.1542   152.7459 H6            1 RES     
   19686 H6        -278.3678   -76.0816   152.2886 H6            1 RES     
   19687 H6        -278.4469   -77.8887   152.3580 H6            1 RES     
   19688 H6        -276.8607   -78.0300   150.4196 H6            1 RES     
   19689 H6        -276.7588   -76.2274   150.3599 H6            1 RES     
   19690 H6        -278.3174   -77.0563   150.0004 H6            1 RES     
   19691 H6        -274.4885   -71.5538   162.6485 H6            1 RES     
   19692 H6        -274.5341   -72.8567   161.4720 H6            1 RES     
   19693 H6        -273.1472   -71.2522   160.6837 H6            1 RES     
   19694 H6        -275.6068   -71.0633   158.8274 H6            1 RES     
   19695 H6        -274.4010   -72.4449   158.9917 H6            1 RES     
   19696 H6        -273.8938   -69.7315   157.7760 H6            1 RES     
   19697 H6        -272.6613   -71.0524   158.1195 H6            1 RES     
   19698 H6        -273.2435   -71.0404   155.8464 H6            1 RES     
   19699 H6        -273.9941   -72.5264   156.5225 H6            1 RES     
   19700 H6        -275.4572   -69.8179   156.1099 H6            1 RES     
   19701 H6        -276.2509   -71.3930   156.4416 H6            1 RES     
   19702 H6        -274.5886   -70.5646   153.9432 H6            1 RES     
   19703 H6        -276.3832   -70.5826   154.0363 H6            1 RES     
   19704 H6        -275.5253   -72.5599   152.8350 H6            1 RES     
   19705 H6        -276.4021   -72.9866   154.3439 H6            1 RES     
   19706 H6        -274.5929   -73.0844   154.2856 H6            1 RES     
   19707 H6        -275.0153   -68.8230   160.3540 H6            1 RES     
   19708 H6        -273.9696   -69.1218   161.7938 H6            1 RES     
   19709 H6        -271.9742   -69.3556   160.6458 H6            1 RES     
   19710 H6        -272.5975   -68.9469   159.0718 H6            1 RES     
   19711 H6        -271.2021   -67.4002   160.0921 H6            1 RES     
   19712 H6        -272.3552   -66.9240   161.3480 H6            1 RES     
   19713 H6        -273.7234   -65.7532   159.5938 H6            1 RES     
   19714 H6        -272.9156   -66.6785   158.2724 H6            1 RES     
   19715 H6        -270.7405   -65.7263   158.7072 H6            1 RES     
   19716 H6        -271.3558   -64.7204   160.0713 H6            1 RES     
   19717 H6        -272.6445   -63.3297   158.4869 H6            1 RES     
   19718 H6        -272.2064   -64.4168   157.1080 H6            1 RES     
   19719 H6        -269.7919   -63.9436   157.4124 H6            1 RES     
   19720 H6        -270.1361   -62.8860   158.8309 H6            1 RES     
   19721 H6        -271.3590   -61.2908   157.3661 H6            1 RES     
   19722 H6        -271.0523   -62.3581   155.9304 H6            1 RES     
   19723 H6        -269.6767   -61.5740   156.7890 H6            1 RES     
   19724 C0        -272.6988   -82.3968   167.4238 C0            1 RES     
   19725 C1        -273.0882   -82.1033   168.7010 C1            1 RES     
   19726 C1        -274.4238   -81.9886   168.8410 C1            1 RES     
   19727 C1        -275.0359   -82.1241   167.7064 C1            1 RES     
   19728 C1        -274.0626   -82.3470   166.6230 C1            1 RES     
   19729 C1        -274.3969   -81.0592   165.8854 C1            1 RES     
   19730 C1        -275.5772   -80.4500   166.1999 C1            1 RES     
   19731 S2        -276.6099   -81.4289   167.3426 S2            1 RES     
   19732 C1        -275.9681   -79.0654   165.7002 C1            1 RES     
   19733 C1        -275.2898   -78.4548   164.6044 C1            1 RES     
   19734 N3        -275.6170   -77.2047   164.1656 N3            1 RES     
   19735 C1        -276.5816   -76.4547   164.7440 C1            1 RES     
   19736 C1        -277.2724   -76.9738   165.8318 C1            1 RES     
   19737 C1        -276.9737   -78.2859   166.3102 C1            1 RES     
   19738 N3        -277.7095   -78.6775   167.3886 N3            1 RES     
   19739 S2        -278.6841   -77.3666   167.6647 S2            1 RES     
   19740 N3        -278.2382   -76.2909   166.4935 N3            1 RES     
   19741 S2        -274.9013   -81.5050   170.3706 S2            1 RES     
   19742 C1        -273.3032   -81.4428   170.9268 C1            1 RES     
   19743 C1        -272.4195   -81.7550   169.8865 C1            1 RES     
   19744 C0        -271.9767   -83.8286   167.4794 C0            1 RES     
   19745 C0        -271.6990   -85.1005   168.4280 C0            1 RES     
   19746 C0        -271.1283   -84.7927   169.8483 C0            1 RES     
   19747 C0        -272.0470   -85.3513   170.9515 C0            1 RES     
   19748 C0        -271.6509   -84.9272   172.3773 C0            1 RES     
   19749 C0        -272.5667   -85.6338   173.3949 C0            1 RES     
   19750 C0        -272.3786   -85.1207   174.8280 C0            1 RES     
   19751 C0        -273.2867   -85.8833   175.7955 C0            1 RES     
   19752 C0        -270.6714   -85.9987   167.6059 C0            1 RES     
   19753 C0        -270.0406   -87.3557   168.0501 C0            1 RES     
   19754 C0        -268.7842   -87.3000   168.9723 C0            1 RES     
   19755 C0        -267.8585   -88.5361   168.7536 C0            1 RES     
   19756 C0        -266.5476   -88.4800   169.5652 C0            1 RES     
   19757 C0        -265.4187   -89.3878   169.0110 C0            1 RES     
   19758 C0        -265.7520   -90.8844   168.9243 C0            1 RES     
   19759 C0        -264.5451   -91.6781   168.4057 C0            1 RES     
   19760 C0        -271.5164   -81.4552   166.8869 C0            1 RES     
   19761 C0        -270.6406   -81.6412   165.5140 C0            1 RES     
   19762 C0        -269.8318   -82.9995   165.4713 C0            1 RES     
   19763 C0        -268.7319   -83.1796   164.4300 C0            1 RES     
   19764 C0        -267.8917   -84.4618   164.5692 C0            1 RES     
   19765 C0        -268.6581   -85.7358   164.1571 C0            1 RES     
   19766 C0        -267.7103   -86.8949   163.7994 C0            1 RES     
   19767 C0        -266.9139   -87.4244   164.9794 C0            1 RES     
   19768 C0        -271.2725   -81.2406   164.1038 C0            1 RES     
   19769 C0        -270.1840   -80.6628   163.1213 C0            1 RES     
   19770 C0        -270.5065   -80.0322   161.7386 C0            1 RES     
   19771 C0        -270.6025   -80.9595   160.4829 C0            1 RES     
   19772 C0        -270.0800   -80.1698   159.2425 C0            1 RES     
   19773 C0        -270.0597   -80.9065   157.8857 C0            1 RES     
   19774 C0        -269.2751   -80.0546   156.8563 C0            1 RES     
   19775 C0        -269.2425   -80.6636   155.4553 C0            1 RES     
   19776 H4        -273.7025   -80.6081   165.2261 H4            1 RES     
   19777 H5        -274.5094   -78.9770   164.0752 H5            1 RES     
   19778 H4        -271.3493   -81.6970   170.0059 H4            1 RES     
   19779 H6        -272.3239   -84.2975   166.5339 H6            1 RES     
   19780 H6        -270.9345   -83.5805   167.4878 H6            1 RES     
   19781 H6        -272.6436   -85.6784   168.5323 H6            1 RES     
   19782 H6        -270.1165   -85.2133   169.9891 H6            1 RES     
   19783 H6        -270.9538   -83.7300   169.9703 H6            1 RES     
   19784 H6        -273.0840   -84.9888   170.7772 H6            1 RES     
   19785 H6        -272.0363   -86.4610   170.8736 H6            1 RES     
   19786 H6        -270.5923   -85.1909   172.5946 H6            1 RES     
   19787 H6        -271.7684   -83.8242   172.4611 H6            1 RES     
   19788 H6        -272.3574   -86.7266   173.3596 H6            1 RES     
   19789 H6        -273.6292   -85.4669   173.1126 H6            1 RES     
   19790 H6        -271.3230   -85.2437   175.1518 H6            1 RES     
   19791 H6        -272.6427   -84.0410   174.8664 H6            1 RES     
   19792 H6        -274.3515   -85.7855   175.4914 H6            1 RES     
   19793 H6        -273.0148   -86.9607   175.8102 H6            1 RES     
   19794 H6        -273.1756   -85.4765   176.8226 H6            1 RES     
   19795 H6        -271.2150   -86.2418   166.6666 H6            1 RES     
   19796 H6        -269.7952   -85.3780   167.3138 H6            1 RES     
   19797 H6        -270.7913   -88.0930   168.3992 H6            1 RES     
   19798 H6        -269.6454   -87.7457   167.0853 H6            1 RES     
   19799 H6        -268.1725   -86.4155   168.6834 H6            1 RES     
   19800 H6        -269.0758   -87.1986   170.0374 H6            1 RES     
   19801 H6        -268.3912   -89.4882   168.9604 H6            1 RES     
   19802 H6        -267.5652   -88.5397   167.6930 H6            1 RES     
   19803 H6        -266.1355   -87.4484   169.5138 H6            1 RES     
   19804 H6        -266.7605   -88.7113   170.6304 H6            1 RES     
   19805 H6        -264.5270   -89.2587   169.6638 H6            1 RES     
   19806 H6        -265.1436   -89.0328   167.9926 H6            1 RES     
   19807 H6        -266.5995   -91.0392   168.2236 H6            1 RES     
   19808 H6        -266.0309   -91.2708   169.9265 H6            1 RES     
   19809 H6        -263.6822   -91.5732   169.0985 H6            1 RES     
   19810 H6        -264.2391   -91.3195   167.3988 H6            1 RES     
   19811 H6        -264.8022   -92.7560   168.3288 H6            1 RES     
   19812 H6        -271.9085   -80.4146   166.8788 H6            1 RES     
   19813 H6        -270.7388   -81.4471   167.6846 H6            1 RES     
   19814 H6        -269.8781   -80.8494   165.6792 H6            1 RES     
   19815 H6        -270.5287   -83.8467   165.3268 H6            1 RES     
   19816 H6        -269.2773   -83.0699   166.4316 H6            1 RES     
   19817 H6        -269.1782   -83.2451   163.4221 H6            1 RES     
   19818 H6        -268.0404   -82.3147   164.5273 H6            1 RES     
   19819 H6        -267.0584   -84.3341   163.8463 H6            1 RES     
   19820 H6        -267.4493   -84.5574   165.5859 H6            1 RES     
   19821 H6        -269.2176   -85.5224   163.2217 H6            1 RES     
   19822 H6        -269.3947   -86.0319   164.9334 H6            1 RES     
   19823 H6        -267.0071   -86.5589   163.0065 H6            1 RES     
   19824 H6        -268.3116   -87.7345   163.3883 H6            1 RES     
   19825 H6        -266.2466   -88.2452   164.6389 H6            1 RES     
   19826 H6        -267.6270   -87.8298   165.7113 H6            1 RES     
   19827 H6        -266.2908   -86.6338   165.4453 H6            1 RES     
   19828 H6        -271.8771   -82.0702   163.6761 H6            1 RES     
   19829 H6        -271.9188   -80.3600   164.2499 H6            1 RES     
   19830 H6        -269.7345   -79.8284   163.7016 H6            1 RES     
   19831 H6        -269.3561   -81.3286   162.9021 H6            1 RES     
   19832 H6        -269.5767   -79.4443   161.5676 H6            1 RES     
   19833 H6        -271.3278   -79.2868   161.7731 H6            1 RES     
   19834 H6        -271.6404   -81.3344   160.3484 H6            1 RES     
   19835 H6        -269.9247   -81.8333   160.5983 H6            1 RES     
   19836 H6        -269.0224   -79.9019   159.4661 H6            1 RES     
   19837 H6        -270.6594   -79.2294   159.1208 H6            1 RES     
   19838 H6        -271.1016   -81.0736   157.5369 H6            1 RES     
   19839 H6        -269.5494   -81.8892   157.9849 H6            1 RES     
   19840 H6        -268.2232   -79.9452   157.2047 H6            1 RES     
   19841 H6        -269.7233   -79.0403   156.7800 H6            1 RES     
   19842 H6        -270.2681   -80.7283   155.0365 H6            1 RES     
   19843 H6        -268.7802   -81.6725   155.4712 H6            1 RES     
   19844 H6        -268.6344   -80.0126   154.7874 H6            1 RES     
   19845 C0        -269.5868   -77.1365   178.1678 C0            1 RES     
   19846 C1        -270.7499   -76.4592   178.4069 C1            1 RES     
   19847 C1        -271.8114   -77.2678   178.5973 C1            1 RES     
   19848 C1        -271.4937   -78.5156   178.4475 C1            1 RES     
   19849 C1        -270.0672   -78.6427   178.1011 C1            1 RES     
   19850 C1        -270.3236   -79.2375   176.7246 C1            1 RES     
   19851 C1        -271.5657   -79.7525   176.4905 C1            1 RES     
   19852 S2        -272.6269   -79.7748   177.9750 S2            1 RES     
   19853 C1        -272.0432   -80.2049   175.1167 C1            1 RES     
   19854 C1        -271.1227   -80.4401   174.0532 C1            1 RES     
   19855 N3        -271.5433   -80.8219   172.8125 N3            1 RES     
   19856 C1        -272.8484   -80.9824   172.4988 C1            1 RES     
   19857 C1        -273.8066   -80.7500   173.4776 C1            1 RES     
   19858 C1        -273.4072   -80.3674   174.7944 C1            1 RES     
   19859 N3        -274.4380   -80.1568   175.6609 N3            1 RES     
   19860 S2        -275.7717   -80.4692   174.7291 S2            1 RES     
   19861 N3        -275.1388   -80.8604   173.2546 N3            1 RES     
   19862 S2        -273.2609   -76.4478   178.7642 S2            1 RES     
   19863 C1        -272.5081   -74.9399   178.6004 C1            1 RES     
   19864 C1        -271.1378   -75.1094   178.3677 C1            1 RES     
   19865 C0        -268.5883   -76.7776   179.3714 C0            1 RES     
   19866 C0        -268.5067   -76.0696   180.8159 C0            1 RES     
   19867 C0        -269.0920   -74.6254   180.9126 C0            1 RES     
   19868 C0        -270.2042   -74.5444   181.9754 C0            1 RES     
   19869 C0        -270.9577   -73.2023   181.9992 C0            1 RES     
   19870 C0        -271.9609   -73.1989   183.1685 C0            1 RES     
   19871 C0        -272.8971   -71.9841   183.1515 C0            1 RES     
   19872 C0        -273.8436   -72.0180   184.3538 C0            1 RES     
   19873 C0        -266.9535   -76.0578   181.1710 C0            1 RES     
   19874 C0        -266.2846   -75.4757   182.4557 C0            1 RES     
   19875 C0        -265.9924   -73.9441   182.4866 C0            1 RES     
   19876 C0        -264.7557   -73.6153   183.3783 C0            1 RES     
   19877 C0        -264.3578   -72.1248   183.3609 C0            1 RES     
   19878 C0        -262.8946   -71.8534   183.7977 C0            1 RES     
   19879 C0        -262.5225   -72.3329   185.2083 C0            1 RES     
   19880 C0        -261.0685   -71.9680   185.5376 C0            1 RES     
   19881 C0        -268.7786   -76.5841   176.8971 C0            1 RES     
   19882 C0        -267.2564   -76.9800   176.4357 C0            1 RES     
   19883 C0        -266.1643   -76.6219   177.5219 C0            1 RES     
   19884 C0        -264.6910   -76.6262   177.1270 C0            1 RES     
   19885 C0        -263.7164   -76.1074   178.1996 C0            1 RES     
   19886 C0        -263.5296   -77.0900   179.3743 C0            1 RES     
   19887 C0        -262.2205   -76.8352   180.1434 C0            1 RES     
   19888 C0        -262.1921   -75.5112   180.8871 C0            1 RES     
   19889 C0        -266.9814   -78.3706   175.7015 C0            1 RES     
   19890 C0        -265.8316   -78.2459   174.6308 C0            1 RES     
   19891 C0        -265.4419   -79.3743   173.6366 C0            1 RES     
   19892 C0        -264.3974   -80.4510   174.0787 C0            1 RES     
   19893 C0        -263.5631   -80.8744   172.8297 C0            1 RES     
   19894 C0        -262.4455   -81.9189   173.0400 C0            1 RES     
   19895 C0        -261.5805   -82.0033   171.7573 C0            1 RES     
   19896 C0        -260.4743   -83.0547   171.8326 C0            1 RES     
   19897 H4        -269.6005   -79.1708   175.9545 H4            1 RES     
   19898 H5        -270.0604   -80.3433   174.2081 H5            1 RES     
   19899 H4        -270.4845   -74.2779   178.1563 H4            1 RES     
   19900 H6        -268.0784   -77.7494   179.5442 H6            1 RES     
   19901 H6        -267.9566   -76.0206   178.9521 H6            1 RES     
   19902 H6        -269.0176   -76.7202   181.5594 H6            1 RES     
   19903 H6        -268.3162   -73.8789   181.1602 H6            1 RES     
   19904 H6        -269.4367   -74.2848   179.9432 H6            1 RES     
   19905 H6        -270.9556   -75.3395   181.7744 H6            1 RES     
   19906 H6        -269.7398   -74.7315   182.9688 H6            1 RES     
   19907 H6        -270.2540   -72.3493   182.1199 H6            1 RES     
   19908 H6        -271.4980   -73.0856   181.0338 H6            1 RES     
   19909 H6        -271.3900   -73.2164   184.1240 H6            1 RES     
   19910 H6        -272.5918   -74.1129   183.1155 H6            1 RES     
   19911 H6        -272.3126   -71.0397   183.1795 H6            1 RES     
   19912 H6        -273.5033   -72.0039   182.2192 H6            1 RES     
   19913 H6        -274.4372   -72.9578   184.3574 H6            1 RES     
   19914 H6        -273.2653   -71.9547   185.3007 H6            1 RES     
   19915 H6        -274.5454   -71.1588   184.3100 H6            1 RES     
   19916 H6        -266.6679   -77.1326   181.1743 H6            1 RES     
   19917 H6        -266.3910   -75.5827   180.3365 H6            1 RES     
   19918 H6        -266.7513   -75.8381   183.3937 H6            1 RES     
   19919 H6        -265.2732   -75.9387   182.4113 H6            1 RES     
   19920 H6        -265.7140   -73.6165   181.4595 H6            1 RES     
   19921 H6        -266.8865   -73.3744   182.8120 H6            1 RES     
   19922 H6        -264.9036   -73.9553   184.4250 H6            1 RES     
   19923 H6        -263.8994   -74.1685   182.9641 H6            1 RES     
   19924 H6        -264.4188   -71.7474   182.3166 H6            1 RES     
   19925 H6        -265.0743   -71.5423   183.9781 H6            1 RES     
   19926 H6        -262.7192   -70.7564   183.7366 H6            1 RES     
   19927 H6        -262.2089   -72.3441   183.0709 H6            1 RES     
   19928 H6        -262.6280   -73.4367   185.2685 H6            1 RES     
   19929 H6        -263.1892   -71.8603   185.9591 H6            1 RES     
   19930 H6        -260.9289   -70.8654   185.5179 H6            1 RES     
   19931 H6        -260.3697   -72.4287   184.8058 H6            1 RES     
   19932 H6        -260.8036   -72.3354   186.5519 H6            1 RES     
   19933 H6        -269.4313   -76.7303   176.0086 H6            1 RES     
   19934 H6        -268.7271   -75.4779   177.0182 H6            1 RES     
   19935 H6        -267.1169   -76.2364   175.6213 H6            1 RES     
   19936 H6        -266.2503   -77.3124   178.3822 H6            1 RES     
   19937 H6        -266.3394   -75.5639   177.8125 H6            1 RES     
   19938 H6        -264.3608   -77.6605   176.9253 H6            1 RES     
   19939 H6        -264.5863   -75.9710   176.2353 H6            1 RES     
   19940 H6        -262.7380   -76.0305   177.6797 H6            1 RES     
   19941 H6        -263.9952   -75.0898   178.5534 H6            1 RES     
   19942 H6        -263.4258   -78.1158   178.9616 H6            1 RES     
   19943 H6        -264.4110   -77.0831   180.0496 H6            1 RES     
   19944 H6        -261.3671   -76.8720   179.4319 H6            1 RES     
   19945 H6        -262.0792   -77.6485   180.8877 H6            1 RES     
   19946 H6        -261.2145   -75.3955   181.4025 H6            1 RES     
   19947 H6        -262.9895   -75.5333   181.6435 H6            1 RES     
   19948 H6        -262.3338   -74.6499   180.2026 H6            1 RES     
   19949 H6        -266.8358   -79.1968   176.4315 H6            1 RES     
   19950 H6        -267.8472   -78.6027   175.0604 H6            1 RES     
   19951 H6        -266.1808   -77.4176   173.9773 H6            1 RES     
   19952 H6        -264.8731   -77.9135   175.0152 H6            1 RES     
   19953 H6        -264.9041   -78.7801   172.8638 H6            1 RES     
   19954 H6        -266.3118   -79.8237   173.1144 H6            1 RES     
   19955 H6        -264.9019   -81.3107   174.5708 H6            1 RES     
   19956 H6        -263.6722   -80.0102   174.7971 H6            1 RES     
   19957 H6        -263.0599   -79.9511   172.4630 H6            1 RES     
   19958 H6        -264.2401   -81.2435   172.0295 H6            1 RES     
   19959 H6        -262.8982   -82.9080   173.2681 H6            1 RES     
   19960 H6        -261.7874   -81.6189   173.8842 H6            1 RES     
   19961 H6        -261.0993   -81.0148   171.5803 H6            1 RES     
   19962 H6        -262.2209   -82.2400   170.8802 H6            1 RES     
   19963 H6        -260.9104   -84.0695   171.9393 H6            1 RES     
   19964 H6        -259.7890   -82.8505   172.6814 H6            1 RES     
   19965 H6        -259.8801   -83.0287   170.8914 H6            1 RES     
   19966 C0        -275.9375   -66.6766   176.4223 C0            1 RES     
   19967 C1        -277.1466   -67.2250   176.0964 C1            1 RES     
   19968 C1        -277.7069   -67.9240   177.1034 C1            1 RES     
   19969 C1        -276.9329   -67.9676   178.1424 C1            1 RES     
   19970 C1        -275.6770   -67.2447   177.8759 C1            1 RES     
   19971 C1        -274.7930   -68.4766   178.0002 C1            1 RES     
   19972 C1        -275.3276   -69.5660   178.6252 C1            1 RES     
   19973 S2        -276.9709   -69.2446   179.3510 S2            1 RES     
   19974 C1        -274.6524   -70.9308   178.6603 C1            1 RES     
   19975 C1        -273.2705   -71.0816   178.3419 C1            1 RES     
   19976 N3        -272.6631   -72.3036   178.3471 N3            1 RES     
   19977 C1        -273.3237   -73.4486   178.6300 C1            1 RES     
   19978 C1        -274.6789   -73.3844   178.9289 C1            1 RES     
   19979 C1        -275.3480   -72.1229   178.9531 C1            1 RES     
   19980 N3        -276.6771   -72.1915   179.2472 N3            1 RES     
   19981 S2        -276.9227   -73.8155   179.4637 S2            1 RES     
   19982 N3        -275.4324   -74.4774   179.2018 N3            1 RES     
   19983 S2        -279.1245   -68.7037   176.6746 S2            1 RES     
   19984 C1        -279.0540   -68.1113   175.0899 C1            1 RES     
   19985 C1        -277.8914   -67.3516   174.9118 C1            1 RES     
   19986 C0        -276.1099   -65.0848   176.3182 C0            1 RES     
   19987 C0        -277.1994   -63.9110   176.1454 C0            1 RES     
   19988 C0        -278.2002   -64.0655   174.9570 C0            1 RES     
   19989 C0        -279.6587   -64.0668   175.4528 C0            1 RES     
   19990 C0        -280.6947   -64.4022   174.3648 C0            1 RES     
   19991 C0        -282.1137   -64.2621   174.9483 C0            1 RES     
   19992 C0        -283.2055   -64.7687   173.9975 C0            1 RES     
   19993 C0        -284.5913   -64.5706   174.6161 C0            1 RES     
   19994 C0        -276.3360   -62.5838   175.9675 C0            1 RES     
   19995 C0        -276.8708   -61.1339   175.7469 C0            1 RES     
   19996 C0        -277.2503   -60.7181   174.2925 C0            1 RES     
   19997 C0        -277.0539   -59.1876   174.0651 C0            1 RES     
   19998 C0        -277.3148   -58.7383   172.6124 C0            1 RES     
   19999 C0        -276.6602   -57.3825   172.2401 C0            1 RES     
   20000 C0        -277.0880   -56.1811   173.0955 C0            1 RES     
   20001 C0        -276.4084   -54.8964   172.6020 C0            1 RES     
   20002 C0        -274.7975   -66.9540   175.3284 C0            1 RES     
   20003 C0        -273.3051   -66.2807   175.2524 C0            1 RES     
   20004 C0        -273.3398   -64.7078   175.0914 C0            1 RES     
   20005 C0        -272.0666   -63.9719   174.6865 C0            1 RES     
   20006 C0        -272.2344   -62.4698   174.3948 C0            1 RES     
   20007 C0        -272.4615   -61.6274   175.6672 C0            1 RES     
   20008 C0        -272.1122   -60.1435   175.4525 C0            1 RES     
   20009 C0        -273.0364   -59.4284   174.4823 C0            1 RES     
   20010 C0        -272.1501   -66.7878   176.2307 C0            1 RES     
   20011 C0        -270.7363   -66.7403   175.5358 C0            1 RES     
   20012 C0        -269.4385   -67.3206   176.1624 C0            1 RES     
   20013 C0        -268.5825   -66.4191   177.1114 C0            1 RES     
   20014 C0        -267.0779   -66.7853   176.9188 C0            1 RES     
   20015 C0        -266.0407   -65.9944   177.7452 C0            1 RES     
   20016 C0        -264.6188   -66.3209   177.2231 C0            1 RES     
   20017 C0        -263.5043   -65.6349   178.0118 C0            1 RES     
   20018 H4        -273.8403   -68.5172   177.5409 H4            1 RES     
   20019 H5        -272.6589   -70.2254   178.1085 H5            1 RES     
   20020 H4        -277.6119   -66.9467   173.9521 H4            1 RES     
   20021 H6        -275.5011   -64.7313   177.1777 H6            1 RES     
   20022 H6        -275.6907   -64.8522   175.3601 H6            1 RES     
   20023 H6        -277.7722   -63.8161   177.0940 H6            1 RES     
   20024 H6        -278.0852   -63.2597   174.2101 H6            1 RES     
   20025 H6        -277.9724   -64.9513   174.3756 H6            1 RES     
   20026 H6        -279.7675   -64.8287   176.2559 H6            1 RES     
   20027 H6        -279.8741   -63.0621   175.8789 H6            1 RES     
   20028 H6        -280.5915   -63.7233   173.4898 H6            1 RES     
   20029 H6        -280.5236   -65.4483   174.0273 H6            1 RES     
   20030 H6        -282.2941   -63.1895   175.1854 H6            1 RES     
   20031 H6        -282.1852   -64.8502   175.8892 H6            1 RES     
   20032 H6        -283.1624   -64.2266   173.0287 H6            1 RES     
   20033 H6        -283.0503   -65.8538   173.8092 H6            1 RES     
   20034 H6        -284.6618   -65.0959   175.5932 H6            1 RES     
   20035 H6        -284.7910   -63.4889   174.7744 H6            1 RES     
   20036 H6        -285.3717   -64.9790   173.9401 H6            1 RES     
   20037 H6        -275.7422   -62.5189   176.9056 H6            1 RES     
   20038 H6        -275.6067   -62.7300   175.1398 H6            1 RES     
   20039 H6        -277.6382   -60.8337   176.4884 H6            1 RES     
   20040 H6        -275.9661   -60.5249   175.9702 H6            1 RES     
   20041 H6        -276.5470   -61.2162   173.5874 H6            1 RES     
   20042 H6        -278.2846   -61.0326   174.0453 H6            1 RES     
   20043 H6        -277.6735   -58.5870   174.7640 H6            1 RES     
   20044 H6        -275.9977   -58.9604   174.2737 H6            1 RES     
   20045 H6        -276.8565   -59.4768   171.9187 H6            1 RES     
   20046 H6        -278.4086   -58.7208   172.4203 H6            1 RES     
   20047 H6        -276.9046   -57.1674   171.1762 H6            1 RES     
   20048 H6        -275.5546   -57.4879   172.3159 H6            1 RES     
   20049 H6        -276.7916   -56.3494   174.1524 H6            1 RES     
   20050 H6        -278.1883   -56.0477   173.0411 H6            1 RES     
   20051 H6        -276.7053   -54.6759   171.5538 H6            1 RES     
   20052 H6        -275.3017   -54.9926   172.6460 H6            1 RES     
   20053 H6        -276.7095   -54.0372   173.2384 H6            1 RES     
   20054 H6        -274.6552   -68.0559   175.2802 H6            1 RES     
   20055 H6        -275.2438   -66.6936   174.3414 H6            1 RES     
   20056 H6        -272.9826   -66.6711   174.2628 H6            1 RES     
   20057 H6        -273.6726   -64.2412   176.0378 H6            1 RES     
   20058 H6        -274.0304   -64.4894   174.2489 H6            1 RES     
   20059 H6        -271.3309   -64.0171   175.5088 H6            1 RES     
   20060 H6        -271.6885   -64.4525   173.7583 H6            1 RES     
   20061 H6        -271.2604   -62.1546   173.9643 H6            1 RES     
   20062 H6        -273.0213   -62.2829   173.6304 H6            1 RES     
   20063 H6        -271.7578   -61.9782   176.4514 H6            1 RES     
   20064 H6        -273.4939   -61.7545   176.0557 H6            1 RES     
   20065 H6        -271.0661   -60.0652   175.0843 H6            1 RES     
   20066 H6        -272.1697   -59.6178   176.4302 H6            1 RES     
   20067 H6        -272.7118   -58.3715   174.3706 H6            1 RES     
   20068 H6        -274.0491   -59.4433   174.9098 H6            1 RES     
   20069 H6        -273.0335   -59.9057   173.4811 H6            1 RES     
   20070 H6        -272.1911   -66.2709   177.2145 H6            1 RES     
   20071 H6        -272.2766   -67.8715   176.3859 H6            1 RES     
   20072 H6        -270.8852   -67.3432   174.6141 H6            1 RES     
   20073 H6        -270.4247   -65.7629   175.1831 H6            1 RES     
   20074 H6        -268.8081   -67.4249   175.2506 H6            1 RES     
   20075 H6        -269.5606   -68.3497   176.5591 H6            1 RES     
   20076 H6        -268.9197   -66.5250   178.1654 H6            1 RES     
   20077 H6        -268.6787   -65.3514   176.8165 H6            1 RES     
   20078 H6        -266.8419   -66.5831   175.8494 H6            1 RES     
   20079 H6        -266.9243   -67.8690   177.1107 H6            1 RES     
   20080 H6        -266.1322   -66.2686   178.8184 H6            1 RES     
   20081 H6        -266.2089   -64.9010   177.6357 H6            1 RES     
   20082 H6        -264.5386   -65.9906   176.1628 H6            1 RES     
   20083 H6        -264.4414   -67.4175   177.2600 H6            1 RES     
   20084 H6        -263.5003   -65.9873   179.0641 H6            1 RES     
   20085 H6        -263.6210   -64.5314   177.9870 H6            1 RES     
   20086 H6        -262.5217   -65.8914   177.5553 H6            1 RES     
   20087 C0        -283.1623   -70.9958   167.3705 C0            1 RES     
   20088 C1        -283.6053   -72.1318   167.9886 C1            1 RES     
   20089 C1        -284.3564   -71.8894   169.0812 C1            1 RES     
   20090 C1        -284.4363   -70.6203   169.3332 C1            1 RES     
   20091 C1        -283.6619   -69.8519   168.3430 C1            1 RES     
   20092 C1        -282.6661   -69.3071   169.3559 C1            1 RES     
   20093 C1        -283.0211   -69.3679   170.6725 C1            1 RES     
   20094 S2        -284.7328   -69.9459   170.9302 S2            1 RES     
   20095 C1        -282.0675   -69.0475   171.8161 C1            1 RES     
   20096 C1        -280.8511   -68.3385   171.5894 C1            1 RES     
   20097 N3        -279.9792   -68.0684   172.6038 N3            1 RES     
   20098 C1        -280.1920   -68.4667   173.8780 C1            1 RES     
   20099 C1        -281.3459   -69.1820   174.1729 C1            1 RES     
   20100 C1        -282.2935   -69.4689   173.1436 C1            1 RES     
   20101 N3        -283.3772   -70.1862   173.5543 N3            1 RES     
   20102 S2        -283.0827   -70.4052   175.1698 S2            1 RES     
   20103 N3        -281.6367   -69.6451   175.4129 N3            1 RES     
   20104 S2        -284.7966   -73.2717   169.9160 S2            1 RES     
   20105 C1        -283.9944   -74.2773   168.8148 C1            1 RES     
   20106 C1        -283.3529   -73.5057   167.8382 C1            1 RES     
   20107 C0        -283.8060   -70.9896   165.9007 C0            1 RES     
   20108 C0        -284.8942   -71.7181   164.9629 C0            1 RES     
   20109 C0        -284.8082   -73.2751   164.8844 C0            1 RES     
   20110 C0        -286.1307   -73.9297   165.3262 C0            1 RES     
   20111 C0        -286.0642   -75.4622   165.4552 C0            1 RES     
   20112 C0        -287.4650   -76.0094   165.7894 C0            1 RES     
   20113 C0        -287.4583   -77.5041   166.1334 C0            1 RES     
   20114 C0        -288.8789   -77.9961   166.4201 C0            1 RES     
   20115 C0        -284.6712   -71.0821   163.5192 C0            1 RES     
   20116 C0        -285.4443   -71.4269   162.2076 C0            1 RES     
   20117 C0        -284.9714   -72.6727   161.3973 C0            1 RES     
   20118 C0        -285.2591   -72.5071   159.8734 C0            1 RES     
   20119 C0        -284.7167   -73.6655   159.0108 C0            1 RES     
   20120 C0        -284.5309   -73.3085   157.5130 C0            1 RES     
   20121 C0        -285.7972   -72.8443   156.7786 C0            1 RES     
   20122 C0        -285.4936   -72.5653   155.3002 C0            1 RES     
   20123 C0        -281.5929   -71.0221   167.0398 C0            1 RES     
   20124 C0        -280.7518   -69.9609   166.1164 C0            1 RES     
   20125 C0        -281.2573   -69.9023   164.6190 C0            1 RES     
   20126 C0        -280.3908   -69.2189   163.5661 C0            1 RES     
   20127 C0        -280.8831   -69.3544   162.1139 C0            1 RES     
   20128 C0        -282.1324   -68.4996   161.8157 C0            1 RES     
   20129 C0        -282.3039   -68.2252   160.3107 C0            1 RES     
   20130 C0        -282.6187   -69.4649   159.4916 C0            1 RES     
   20131 C0        -280.3573   -68.5299   166.7037 C0            1 RES     
   20132 C0        -278.9609   -68.0422   166.1595 C0            1 RES     
   20133 C0        -278.2242   -66.7721   166.6673 C0            1 RES     
   20134 C0        -278.5402   -65.3921   166.0029 C0            1 RES     
   20135 C0        -277.2357   -64.5357   165.9947 C0            1 RES     
   20136 C0        -277.3091   -63.1316   165.3565 C0            1 RES     
   20137 C0        -275.8751   -62.5621   165.2143 C0            1 RES     
   20138 C0        -275.8327   -61.1446   164.6454 C0            1 RES     
   20139 H4        -281.7039   -68.9812   169.0591 H4            1 RES     
   20140 H5        -280.5963   -67.9749   170.6072 H5            1 RES     
   20141 H4        -282.7187   -73.9453   167.0848 H4            1 RES     
   20142 H6        -284.0378   -69.9126   165.7563 H6            1 RES     
   20143 H6        -283.0115   -71.3531   165.2807 H6            1 RES     
   20144 H6        -285.9110   -71.4264   165.3066 H6            1 RES     
   20145 H6        -284.5671   -73.6265   163.8652 H6            1 RES     
   20146 H6        -283.9659   -73.6428   165.4588 H6            1 RES     
   20147 H6        -286.4181   -73.5284   166.3230 H6            1 RES     
   20148 H6        -286.9130   -73.6491   164.5867 H6            1 RES     
   20149 H6        -285.7060   -75.9289   164.5111 H6            1 RES     
   20150 H6        -285.3519   -75.7154   166.2713 H6            1 RES     
   20151 H6        -288.1319   -75.8307   164.9162 H6            1 RES     
   20152 H6        -287.8748   -75.4624   166.6665 H6            1 RES     
   20153 H6        -287.0342   -78.0963   165.2945 H6            1 RES     
   20154 H6        -286.8344   -77.6670   167.0396 H6            1 RES     
   20155 H6        -289.3334   -77.4148   167.2515 H6            1 RES     
   20156 H6        -289.5144   -77.8857   165.5151 H6            1 RES     
   20157 H6        -288.8594   -79.0677   166.7099 H6            1 RES     
   20158 H6        -284.8552   -69.9957   163.6702 H6            1 RES     
   20159 H6        -283.6003   -71.1860   163.2350 H6            1 RES     
   20160 H6        -286.5459   -71.3913   162.3275 H6            1 RES     
   20161 H6        -285.1736   -70.5666   161.5551 H6            1 RES     
   20162 H6        -283.8640   -72.7513   161.4841 H6            1 RES     
   20163 H6        -285.4266   -73.6026   161.7945 H6            1 RES     
   20164 H6        -286.3420   -72.3621   159.6745 H6            1 RES     
   20165 H6        -284.7327   -71.6004   159.5392 H6            1 RES     
   20166 H6        -283.6988   -73.9354   159.3683 H6            1 RES     
   20167 H6        -285.3697   -74.5557   159.1320 H6            1 RES     
   20168 H6        -284.1289   -74.2080   156.9961 H6            1 RES     
   20169 H6        -283.7660   -72.5040   157.4306 H6            1 RES     
   20170 H6        -286.1759   -71.9081   157.2404 H6            1 RES     
   20171 H6        -286.5819   -73.6265   156.8416 H6            1 RES     
   20172 H6        -285.1398   -73.4892   154.7935 H6            1 RES     
   20173 H6        -284.7117   -71.7815   155.1983 H6            1 RES     
   20174 H6        -286.4108   -72.2124   154.7826 H6            1 RES     
   20175 H6        -281.0576   -71.0962   168.0118 H6            1 RES     
   20176 H6        -281.3958   -72.0006   166.5450 H6            1 RES     
   20177 H6        -279.7759   -70.4917   166.0773 H6            1 RES     
   20178 H6        -282.2421   -69.3998   164.5750 H6            1 RES     
   20179 H6        -281.3040   -70.9520   164.2577 H6            1 RES     
   20180 H6        -280.3641   -68.1308   163.7525 H6            1 RES     
   20181 H6        -279.3804   -69.6790   163.6208 H6            1 RES     
   20182 H6        -280.0548   -68.9486   161.4953 H6            1 RES     
   20183 H6        -281.0333   -70.4188   161.8263 H6            1 RES     
   20184 H6        -281.9920   -67.4990   162.2765 H6            1 RES     
   20185 H6        -283.0451   -68.9521   162.2575 H6            1 RES     
   20186 H6        -281.3761   -67.7549   159.9182 H6            1 RES     
   20187 H6        -283.1372   -67.5028   160.1717 H6            1 RES     
   20188 H6        -282.7132   -69.1878   158.4196 H6            1 RES     
   20189 H6        -283.5829   -69.8619   159.8398 H6            1 RES     
   20190 H6        -281.8269   -70.2357   159.5880 H6            1 RES     
   20191 H6        -281.1796   -67.7928   166.5721 H6            1 RES     
   20192 H6        -280.1412   -68.6426   167.7785 H6            1 RES     
   20193 H6        -278.2777   -68.8769   166.4269 H6            1 RES     
   20194 H6        -278.8875   -67.9556   165.0807 H6            1 RES     
   20195 H6        -277.1864   -66.9990   166.3342 H6            1 RES     
   20196 H6        -278.1732   -66.7029   167.7737 H6            1 RES     
   20197 H6        -279.3828   -64.8877   166.5238 H6            1 RES     
   20198 H6        -278.8203   -65.5347   164.9364 H6            1 RES     
   20199 H6        -276.4898   -65.1089   165.3986 H6            1 RES     
   20200 H6        -276.8464   -64.4289   167.0300 H6            1 RES     
   20201 H6        -277.9297   -62.4650   165.9934 H6            1 RES     
   20202 H6        -277.7627   -63.1888   164.3432 H6            1 RES     
   20203 H6        -275.2908   -63.2204   164.5323 H6            1 RES     
   20204 H6        -275.3693   -62.5508   166.2040 H6            1 RES     
   20205 H6        -276.3449   -60.4367   165.3295 H6            1 RES     
   20206 H6        -276.3059   -61.1046   163.6423 H6            1 RES     
   20207 H6        -274.7717   -60.8231   164.5429 H6            1 RES     
   20208 C0        -281.0698   -82.9738   169.5925 C0            1 RES     
   20209 C1        -281.3394   -82.9820   170.9327 C1            1 RES     
   20210 C1        -282.6233   -82.6924   171.2229 C1            1 RES     
   20211 C1        -283.3016   -82.4091   170.1551 C1            1 RES     
   20212 C1        -282.4368   -82.4830   168.9646 C1            1 RES     
   20213 C1        -282.5628   -81.0056   168.6245 C1            1 RES     
   20214 C1        -283.5954   -80.3209   169.1971 C1            1 RES     
   20215 S2        -284.7364   -81.3922   170.1357 S2            1 RES     
   20216 C1        -283.7482   -78.8076   169.1163 C1            1 RES     
   20217 C1        -283.0207   -78.0399   168.1597 C1            1 RES     
   20218 N3        -283.1328   -76.6814   168.0962 N3            1 RES     
   20219 C1        -283.9156   -75.9709   168.9387 C1            1 RES     
   20220 C1        -284.6390   -76.6477   169.9128 C1            1 RES     
   20221 C1        -284.5645   -78.0712   170.0008 C1            1 RES     
   20222 N3        -285.3090   -78.6172   171.0034 N3            1 RES     
   20223 S2        -286.0127   -77.2908   171.7033 S2            1 RES     
   20224 N3        -285.4315   -76.0235   170.8179 N3            1 RES     
   20225 S2        -282.9329   -82.5753   172.8635 S2            1 RES     
   20226 C1        -281.3266   -82.9313   173.2638 C1            1 RES     
   20227 C1        -280.5642   -83.0870   172.0997 C1            1 RES     
   20228 C0        -280.6210   -84.4643   169.2032 C0            1 RES     
   20229 C0        -280.5379   -85.9752   169.7554 C0            1 RES     
   20230 C0        -279.8555   -86.1668   171.1465 C0            1 RES     
   20231 C0        -280.8092   -86.8478   172.1464 C0            1 RES     
   20232 C0        -280.2766   -86.9020   173.5897 C0            1 RES     
   20233 C0        -281.2586   -87.7003   174.4683 C0            1 RES     
   20234 C0        -280.9137   -87.6380   175.9615 C0            1 RES     
   20235 C0        -281.9007   -88.4768   176.7767 C0            1 RES     
   20236 C0        -279.7317   -86.7695   168.6340 C0            1 RES     
   20237 C0        -279.3409   -88.2808   168.6462 C0            1 RES     
   20238 C0        -278.0543   -88.6872   169.4284 C0            1 RES     
   20239 C0        -277.3823   -89.9505   168.8077 C0            1 RES     
   20240 C0        -276.0473   -90.3352   169.4787 C0            1 RES     
   20241 C0        -275.1311   -91.2287   168.6026 C0            1 RES     
   20242 C0        -275.7369   -92.5682   168.1590 C0            1 RES     
   20243 C0        -274.7215   -93.3763   167.3395 C0            1 RES     
   20244 C0        -279.7608   -82.1285   169.2119 C0            1 RES     
   20245 C0        -278.9982   -82.0720   167.7622 C0            1 RES     
   20246 C0        -278.4553   -83.4802   167.2896 C0            1 RES     
   20247 C0        -277.4564   -83.5458   166.1388 C0            1 RES     
   20248 C0        -276.8603   -84.9369   165.8579 C0            1 RES     
   20249 C0        -277.8657   -85.9052   165.2007 C0            1 RES     
   20250 C0        -277.1642   -87.0610   164.4646 C0            1 RES     
   20251 C0        -276.4250   -88.0172   165.3845 C0            1 RES     
   20252 C0        -279.6104   -81.2019   166.5719 C0            1 RES     
   20253 C0        -278.4808   -80.5638   165.6770 C0            1 RES     
   20254 C0        -278.7456   -79.5340   164.5442 C0            1 RES     
   20255 C0        -279.0679   -80.0525   163.1044 C0            1 RES     
   20256 C0        -278.4672   -79.0499   162.0705 C0            1 RES     
   20257 C0        -278.6450   -79.3791   160.5724 C0            1 RES     
   20258 C0        -277.7658   -78.4184   159.7329 C0            1 RES     
   20259 C0        -277.9102   -78.6166   158.2247 C0            1 RES     
   20260 H4        -281.8286   -80.5114   168.0440 H4            1 RES     
   20261 H5        -282.3747   -78.5178   167.4413 H5            1 RES     
   20262 H4        -279.4971   -83.2405   172.1289 H4            1 RES     
   20263 H6        -281.0916   -84.5923   168.2049 H6            1 RES     
   20264 H6        -279.5517   -84.4026   169.1782 H6            1 RES     
   20265 H6        -281.5667   -86.3963   169.7932 H6            1 RES     
   20266 H6        -278.9327   -86.7701   171.0766 H6            1 RES     
   20267 H6        -279.4836   -85.2220   171.5254 H6            1 RES     
   20268 H6        -281.7690   -86.2862   172.1714 H6            1 RES     
   20269 H6        -281.0059   -87.8796   171.7802 H6            1 RES     
   20270 H6        -279.2756   -87.3853   173.6299 H6            1 RES     
   20271 H6        -280.1858   -85.8606   173.9699 H6            1 RES     
   20272 H6        -281.2553   -88.7604   174.1287 H6            1 RES     
   20273 H6        -282.2843   -87.2902   174.3408 H6            1 RES     
   20274 H6        -279.8847   -88.0167   176.1411 H6            1 RES     
   20275 H6        -280.9730   -86.5821   176.3058 H6            1 RES     
   20276 H6        -282.9422   -88.1259   176.6103 H6            1 RES     
   20277 H6        -281.8307   -89.5464   176.4833 H6            1 RES     
   20278 H6        -281.6694   -88.3913   177.8592 H6            1 RES     
   20279 H6        -280.3534   -86.6530   167.7192 H6            1 RES     
   20280 H6        -278.7709   -86.2452   168.4335 H6            1 RES     
   20281 H6        -280.1972   -88.9519   168.8591 H6            1 RES     
   20282 H6        -279.0689   -88.4506   167.5802 H6            1 RES     
   20283 H6        -277.3047   -87.8704   169.3248 H6            1 RES     
   20284 H6        -278.2730   -88.8354   170.5054 H6            1 RES     
   20285 H6        -278.0705   -90.8219   168.8073 H6            1 RES     
   20286 H6        -277.1439   -89.7112   167.7605 H6            1 RES     
   20287 H6        -275.4557   -89.4113   169.6606 H6            1 RES     
   20288 H6        -276.2497   -90.8115   170.4614 H6            1 RES     
   20289 H6        -274.2016   -91.4319   169.1795 H6            1 RES     
   20290 H6        -274.8427   -90.6582   167.6914 H6            1 RES     
   20291 H6        -276.6299   -92.3837   167.5251 H6            1 RES     
   20292 H6        -276.0355   -93.1635   169.0467 H6            1 RES     
   20293 H6        -273.8230   -93.6086   167.9513 H6            1 RES     
   20294 H6        -274.4016   -92.8106   166.4375 H6            1 RES     
   20295 H6        -275.1753   -94.3343   167.0077 H6            1 RES     
   20296 H6        -279.9552   -81.0758   169.5134 H6            1 RES     
   20297 H6        -278.9589   -82.4673   169.9072 H6            1 RES     
   20298 H6        -278.0966   -81.4922   168.0564 H6            1 RES     
   20299 H6        -279.3017   -84.1288   166.9946 H6            1 RES     
   20300 H6        -277.8794   -83.9013   168.1414 H6            1 RES     
   20301 H6        -277.9532   -83.2582   165.1955 H6            1 RES     
   20302 H6        -276.6142   -82.8665   166.3935 H6            1 RES     
   20303 H6        -276.0519   -84.7545   165.1186 H6            1 RES     
   20304 H6        -276.3965   -85.3789   166.7678 H6            1 RES     
   20305 H6        -278.4190   -85.3546   164.4107 H6            1 RES     
   20306 H6        -278.6075   -86.2777   165.9382 H6            1 RES     
   20307 H6        -276.4486   -86.6406   163.7248 H6            1 RES     
   20308 H6        -277.9277   -87.6451   163.9065 H6            1 RES     
   20309 H6        -275.9360   -88.8110   164.7799 H6            1 RES     
   20310 H6        -277.1657   -88.4849   166.0485 H6            1 RES     
   20311 H6        -275.6465   -87.4981   165.9804 H6            1 RES     
   20312 H6        -280.3760   -81.7714   166.0008 H6            1 RES     
   20313 H6        -280.0766   -80.3014   167.0035 H6            1 RES     
   20314 H6        -277.8595   -80.0060   166.4105 H6            1 RES     
   20315 H6        -277.8001   -81.2704   165.2143 H6            1 RES     
   20316 H6        -277.7325   -79.0828   164.4464 H6            1 RES     
   20317 H6        -279.4136   -78.7023   164.8497 H6            1 RES     
   20318 H6        -280.1621   -80.2005   162.9747 H6            1 RES     
   20319 H6        -278.5574   -81.0234   162.9228 H6            1 RES     
   20320 H6        -277.3692   -79.0310   162.2559 H6            1 RES     
   20321 H6        -278.8692   -78.0303   162.2542 H6            1 RES     
   20322 H6        -279.7149   -79.2708   160.2917 H6            1 RES     
   20323 H6        -278.3197   -80.4212   160.3625 H6            1 RES     
   20324 H6        -276.6968   -78.5830   159.9972 H6            1 RES     
   20325 H6        -278.0232   -77.3629   159.9672 H6            1 RES     
   20326 H6        -278.9484   -78.3946   157.9020 H6            1 RES     
   20327 H6        -277.6407   -79.6529   157.9324 H6            1 RES     
   20328 H6        -277.2244   -77.9164   157.6963 H6            1 RES     
   20329 C0        -276.5529   -81.4471   180.9966 C0            1 RES     
   20330 C1        -277.5597   -80.6800   181.5130 C1            1 RES     
   20331 C1        -278.7416   -81.3240   181.5841 C1            1 RES     
   20332 C1        -278.6655   -82.5174   181.0837 C1            1 RES     
   20333 C1        -277.3041   -82.7771   180.5836 C1            1 RES     
   20334 C1        -277.7285   -82.9211   179.1298 C1            1 RES     
   20335 C1        -279.0536   -83.1408   178.8870 C1            1 RES     
   20336 S2        -280.0312   -83.3949   180.4069 S2            1 RES     
   20337 C1        -279.6688   -83.1143   177.4939 C1            1 RES     
   20338 C1        -278.8572   -83.1967   176.3242 C1            1 RES     
   20339 N3        -279.3975   -83.1492   175.0721 N3            1 RES     
   20340 C1        -280.7230   -83.0009   174.8515 C1            1 RES     
   20341 C1        -281.5760   -82.8918   175.9427 C1            1 RES     
   20342 C1        -281.0529   -82.9560   177.2700 C1            1 RES     
   20343 N3        -281.9864   -82.8248   178.2544 N3            1 RES     
   20344 S2        -283.3963   -82.6463   177.4031 S2            1 RES     
   20345 N3        -282.9147   -82.7165   175.8248 N3            1 RES     
   20346 S2        -280.0067   -80.3548   182.0953 S2            1 RES     
   20347 C1        -278.9983   -79.0047   182.2618 C1            1 RES     
   20348 C1        -277.6946   -79.3265   181.8651 C1            1 RES     
   20349 C0        -275.4510   -81.6011   182.1528 C0            1 RES     
   20350 C0        -275.1743   -81.3398   183.7180 C0            1 RES     
   20351 C0        -275.4795   -79.9018   184.2439 C0            1 RES     
   20352 C0        -276.5077   -79.9339   185.3905 C0            1 RES     
   20353 C0        -277.0002   -78.5450   185.8355 C0            1 RES     
   20354 C0        -277.9307   -78.6977   187.0539 C0            1 RES     
   20355 C0        -278.6279   -77.3883   187.4436 C0            1 RES     
   20356 C0        -279.5079   -77.5947   188.6786 C0            1 RES     
   20357 C0        -273.6306   -81.6810   183.9160 C0            1 RES     
   20358 C0        -272.8077   -81.5917   185.2395 C0            1 RES     
   20359 C0        -272.2383   -80.1969   185.6426 C0            1 RES     
   20360 C0        -270.9224   -80.3330   186.4688 C0            1 RES     
   20361 C0        -270.2590   -78.9812   186.8048 C0            1 RES     
   20362 C0        -268.7522   -79.0841   187.1577 C0            1 RES     
   20363 C0        -268.4098   -79.9864   188.3522 C0            1 RES     
   20364 C0        -266.8999   -79.9697   188.6273 C0            1 RES     
   20365 C0        -275.7165   -80.7079   179.8446 C0            1 RES     
   20366 C0        -274.3159   -81.2065   179.1547 C0            1 RES     
   20367 C0        -273.1276   -81.3444   180.1890 C0            1 RES     
   20368 C0        -271.6999   -81.4821   179.6700 C0            1 RES     
   20369 C0        -270.5982   -81.4447   180.7444 C0            1 RES     
   20370 C0        -270.5409   -82.7286   181.5980 C0            1 RES     
   20371 C0        -269.1733   -82.9130   182.2803 C0            1 RES     
   20372 C0        -268.8681   -81.8670   183.3385 C0            1 RES     
   20373 C0        -274.3348   -82.3679   178.0596 C0            1 RES     
   20374 C0        -273.2323   -82.1449   176.9556 C0            1 RES     
   20375 C0        -273.1027   -83.0054   175.6686 C0            1 RES     
   20376 C0        -272.2542   -84.3184   175.7133 C0            1 RES     
   20377 C0        -271.5703   -84.5140   174.3243 C0            1 RES     
   20378 C0        -270.6550   -85.7449   174.1478 C0            1 RES     
   20379 C0        -269.8802   -85.6150   172.8122 C0            1 RES     
   20380 C0        -268.9835   -86.8136   172.5054 C0            1 RES     
   20381 H4        -277.0419   -82.7654   178.3395 H4            1 RES     
   20382 H5        -277.7892   -83.3219   176.3985 H5            1 RES     
   20383 H4        -276.9103   -78.5879   181.8182 H4            1 RES     
   20384 H6        -275.1207   -82.6530   182.0164 H6            1 RES     
   20385 H6        -274.7112   -80.8725   181.8888 H6            1 RES     
   20386 H6        -275.7611   -82.0763   184.3099 H6            1 RES     
   20387 H6        -274.5693   -79.3897   184.6041 H6            1 RES     
   20388 H6        -275.8002   -79.2566   183.4342 H6            1 RES     
   20389 H6        -277.4008   -80.5087   185.0601 H6            1 RES     
   20390 H6        -276.0402   -80.4599   186.2521 H6            1 RES     
   20391 H6        -276.1471   -77.8854   186.1085 H6            1 RES     
   20392 H6        -277.5539   -78.0809   184.9896 H6            1 RES     
   20393 H6        -277.3293   -79.0701   187.9135 H6            1 RES     
   20394 H6        -278.7204   -79.4456   186.8232 H6            1 RES     
   20395 H6        -277.8793   -76.5971   187.6627 H6            1 RES     
   20396 H6        -279.2697   -77.0518   186.5999 H6            1 RES     
   20397 H6        -280.2632   -78.3887   188.4919 H6            1 RES     
   20398 H6        -278.8848   -77.8894   189.5503 H6            1 RES     
   20399 H6        -280.0415   -76.6534   188.9274 H6            1 RES     
   20400 H6        -273.5473   -82.7473   183.6110 H6            1 RES     
   20401 H6        -273.0296   -81.0943   183.1859 H6            1 RES     
   20402 H6        -273.2892   -82.1157   186.0895 H6            1 RES     
   20403 H6        -271.9016   -82.1842   184.9805 H6            1 RES     
   20404 H6        -271.9522   -79.6504   184.7155 H6            1 RES     
   20405 H6        -272.9966   -79.5995   186.1883 H6            1 RES     
   20406 H6        -271.0818   -80.9179   187.3991 H6            1 RES     
   20407 H6        -270.2022   -80.8841   185.8456 H6            1 RES     
   20408 H6        -270.2978   -78.3272   185.9062 H6            1 RES     
   20409 H6        -270.8272   -78.4809   187.6175 H6            1 RES     
   20410 H6        -268.3815   -78.0567   187.3696 H6            1 RES     
   20411 H6        -268.2026   -79.4623   186.2667 H6            1 RES     
   20412 H6        -268.7132   -81.0315   188.1310 H6            1 RES     
   20413 H6        -268.9430   -79.6351   189.2597 H6            1 RES     
   20414 H6        -266.5614   -78.9425   188.8838 H6            1 RES     
   20415 H6        -266.3321   -80.3203   187.7380 H6            1 RES     
   20416 H6        -266.6604   -80.6395   189.4804 H6            1 RES     
   20417 H6        -276.4253   -80.4956   179.0144 H6            1 RES     
   20418 H6        -275.4574   -79.7013   180.2456 H6            1 RES     
   20419 H6        -274.0800   -80.3014   178.5539 H6            1 RES     
   20420 H6        -273.2990   -82.2204   180.8427 H6            1 RES     
   20421 H6        -273.0920   -80.3928   180.7615 H6            1 RES     
   20422 H6        -271.5749   -82.4610   179.1745 H6            1 RES     
   20423 H6        -271.5180   -80.6338   178.9751 H6            1 RES     
   20424 H6        -269.6474   -81.3899   180.1731 H6            1 RES     
   20425 H6        -270.6689   -80.5317   181.3768 H6            1 RES     
   20426 H6        -270.6463   -83.6044   180.9233 H6            1 RES     
   20427 H6        -271.3739   -82.7625   182.3314 H6            1 RES     
   20428 H6        -268.3748   -82.8928   181.5070 H6            1 RES     
   20429 H6        -269.1494   -83.9110   182.7691 H6            1 RES     
   20430 H6        -267.8631   -82.0593   183.7719 H6            1 RES     
   20431 H6        -269.6202   -81.9646   184.1343 H6            1 RES     
   20432 H6        -268.8807   -80.8400   182.9198 H6            1 RES     
   20433 H6        -274.3098   -83.3749   178.5308 H6            1 RES     
   20434 H6        -275.2572   -82.2698   177.4645 H6            1 RES     
   20435 H6        -273.4534   -81.1235   176.5776 H6            1 RES     
   20436 H6        -272.2125   -82.0927   177.3217 H6            1 RES     
   20437 H6        -272.5012   -82.3187   175.0313 H6            1 RES     
   20438 H6        -274.0634   -83.1451   175.1313 H6            1 RES     
   20439 H6        -272.8847   -85.1851   176.0084 H6            1 RES     
   20440 H6        -271.4281   -84.2167   176.4505 H6            1 RES     
   20441 H6        -270.9237   -83.6212   174.1663 H6            1 RES     
   20442 H6        -272.3398   -84.5331   173.5227 H6            1 RES     
   20443 H6        -271.2704   -86.6703   174.1507 H6            1 RES     
   20444 H6        -269.9147   -85.8003   174.9753 H6            1 RES     
   20445 H6        -269.2345   -84.7089   172.8557 H6            1 RES     
   20446 H6        -270.5929   -85.4937   171.9680 H6            1 RES     
   20447 H6        -269.5931   -87.7328   172.3833 H6            1 RES     
   20448 H6        -268.2339   -86.9654   173.3096 H6            1 RES     
   20449 H6        -268.4386   -86.6284   171.5522 H6            1 RES     
   20450 C0        -280.9498   -70.0145   182.6549 C0            1 RES     
   20451 C1        -282.2527   -70.2461   182.3121 C1            1 RES     
   20452 C1        -282.8847   -71.0926   183.1492 C1            1 RES     
   20453 C1        -282.0848   -71.5460   184.0629 C1            1 RES     
   20454 C1        -280.7312   -70.9942   183.8780 C1            1 RES     
   20455 C1        -280.0835   -72.3407   183.5919 C1            1 RES     
   20456 C1        -280.7796   -73.4565   183.9573 C1            1 RES     
   20457 S2        -282.3007   -73.0813   184.8932 S2            1 RES     
   20458 C1        -280.3653   -74.8702   183.5704 C1            1 RES     
   20459 C1        -279.0508   -75.1528   183.0951 C1            1 RES     
   20460 N3        -278.6784   -76.4118   182.7231 N3            1 RES     
   20461 C1        -279.5241   -77.4659   182.7573 C1            1 RES     
   20462 C1        -280.8293   -77.2644   183.1887 C1            1 RES     
   20463 C1        -281.2537   -75.9659   183.6050 C1            1 RES     
   20464 N3        -282.5578   -75.8933   183.9946 N3            1 RES     
   20465 S2        -283.0870   -77.4512   183.8006 S2            1 RES     
   20466 N3        -281.7571   -78.2512   183.2356 N3            1 RES     
   20467 S2        -284.4395   -71.4811   182.6665 S2            1 RES     
   20468 C1        -284.3348   -70.4967   181.2927 C1            1 RES     
   20469 C1        -283.0619   -69.9190   181.2111 C1            1 RES     
   20470 C0        -280.8317   -68.4493   182.9877 C0            1 RES     
   20471 C0        -281.6942   -67.1108   183.2315 C0            1 RES     
   20472 C0        -282.7600   -66.7670   182.1437 C0            1 RES     
   20473 C0        -284.1695   -66.6647   182.7567 C0            1 RES     
   20474 C0        -285.2986   -66.5140   181.7214 C0            1 RES     
   20475 C0        -286.6393   -66.3082   182.4519 C0            1 RES     
   20476 C0        -287.8482   -66.3482   181.5088 C0            1 RES     
   20477 C0        -289.1441   -66.1026   182.2851 C0            1 RES     
   20478 C0        -280.6110   -65.9462   183.3267 C0            1 RES     
   20479 C0        -280.8802   -64.4241   183.5446 C0            1 RES     
   20480 C0        -281.2437   -63.5689   182.2921 C0            1 RES     
   20481 C0        -280.7804   -62.0886   182.4558 C0            1 RES     
   20482 C0        -281.0212   -61.2216   181.2025 C0            1 RES     
   20483 C0        -280.1467   -59.9424   181.1382 C0            1 RES     
   20484 C0        -280.3069   -58.9683   182.3145 C0            1 RES     
   20485 C0        -279.4266   -57.7273   182.1128 C0            1 RES     
   20486 C0        -279.9318   -70.1645   181.4243 C0            1 RES     
   20487 C0        -278.3463   -69.7507   181.3872 C0            1 RES     
   20488 C0        -278.0991   -68.2105   181.6475 C0            1 RES     
   20489 C0        -276.7325   -67.6112   181.3315 C0            1 RES     
   20490 C0        -276.6351   -66.0804   181.4601 C0            1 RES     
   20491 C0        -276.6448   -65.5938   182.9242 C0            1 RES     
   20492 C0        -276.0394   -64.1863   183.0735 C0            1 RES     
   20493 C0        -276.8604   -63.0908   182.4157 C0            1 RES     
   20494 C0        -277.2600   -70.6892   182.0856 C0            1 RES     
   20495 C0        -275.8952   -70.6858   181.2975 C0            1 RES     
   20496 C0        -274.6984   -71.6205   181.6255 C0            1 RES     
   20497 C0        -273.6487   -71.1672   182.6924 C0            1 RES     
   20498 C0        -272.2473   -71.7084   182.2701 C0            1 RES     
   20499 C0        -271.0455   -71.3560   183.1734 C0            1 RES     
   20500 C0        -269.7334   -71.7556   182.4527 C0            1 RES     
   20501 C0        -268.4767   -71.5049   183.2850 C0            1 RES     
   20502 H4        -279.1767   -72.4096   183.0504 H4            1 RES     
   20503 H5        -278.3039   -74.3779   183.0374 H5            1 RES     
   20504 H4        -282.7575   -69.3180   180.3690 H4            1 RES     
   20505 H6        -280.1294   -68.4501   183.8486 H6            1 RES     
   20506 H6        -280.4216   -68.0350   182.0889 H6            1 RES     
   20507 H6        -282.1954   -67.1870   184.2214 H6            1 RES     
   20508 H6        -282.5337   -65.8175   181.6263 H6            1 RES     
   20509 H6        -282.7257   -67.4842   181.3319 H6            1 RES     
   20510 H6        -284.3791   -67.5890   183.3390 H6            1 RES     
   20511 H6        -284.1770   -65.7942   183.4493 H6            1 RES     
   20512 H6        -285.1130   -65.6476   181.0488 H6            1 RES     
   20513 H6        -285.3381   -67.4407   181.1072 H6            1 RES     
   20514 H6        -286.6087   -65.3273   182.9773 H6            1 RES     
   20515 H6        -286.7740   -67.1118   183.2085 H6            1 RES     
   20516 H6        -287.7512   -65.5760   180.7159 H6            1 RES     
   20517 H6        -287.9037   -67.3502   181.0293 H6            1 RES     
   20518 H6        -289.2646   -66.8568   183.0928 H6            1 RES     
   20519 H6        -289.1343   -65.0883   182.7391 H6            1 RES     
   20520 H6        -290.0165   -66.1760   181.6023 H6            1 RES     
   20521 H6        -279.9727   -66.2395   184.1889 H6            1 RES     
   20522 H6        -279.9598   -65.9775   182.4248 H6            1 RES     
   20523 H6        -281.5444   -64.2170   184.4076 H6            1 RES     
   20524 H6        -279.8698   -64.0569   183.8334 H6            1 RES     
   20525 H6        -280.6770   -63.9630   181.4183 H6            1 RES     
   20526 H6        -282.3284   -63.6293   182.0696 H6            1 RES     
   20527 H6        -281.2464   -61.6095   183.3426 H6            1 RES     
   20528 H6        -279.6919   -62.1039   182.6163 H6            1 RES     
   20529 H6        -280.7387   -61.8064   180.2998 H6            1 RES     
   20530 H6        -282.1009   -60.9727   181.1255 H6            1 RES     
   20531 H6        -280.3964   -59.4066   180.1956 H6            1 RES     
   20532 H6        -279.0770   -60.2445   181.0795 H6            1 RES     
   20533 H6        -279.9980   -59.4663   183.2578 H6            1 RES     
   20534 H6        -281.3654   -58.6463   182.4006 H6            1 RES     
   20535 H6        -279.7260   -57.1821   181.1916 H6            1 RES     
   20536 H6        -278.3554   -58.0122   182.0258 H6            1 RES     
   20537 H6        -279.5351   -57.0382   182.9773 H6            1 RES     
   20538 H6        -279.9965   -71.2187   181.0763 H6            1 RES     
   20539 H6        -280.3677   -69.5738   180.5864 H6            1 RES     
   20540 H6        -278.1469   -69.9022   180.3042 H6            1 RES     
   20541 H6        -278.2966   -67.9733   182.7100 H6            1 RES     
   20542 H6        -278.7760   -67.6591   180.9604 H6            1 RES     
   20543 H6        -275.9805   -68.0004   182.0403 H6            1 RES     
   20544 H6        -276.4923   -67.8741   180.2785 H6            1 RES     
   20545 H6        -275.6407   -65.8235   181.0375 H6            1 RES     
   20546 H6        -277.4088   -65.5645   180.8488 H6            1 RES     
   20547 H6        -275.9820   -66.2569   183.5195 H6            1 RES     
   20548 H6        -277.6640   -65.6513   183.3612 H6            1 RES     
   20549 H6        -275.0148   -64.1829   182.6419 H6            1 RES     
   20550 H6        -275.9543   -63.9468   184.1556 H6            1 RES     
   20551 H6        -276.3529   -62.1120   182.5545 H6            1 RES     
   20552 H6        -277.8378   -63.0560   182.9176 H6            1 RES     
   20553 H6        -276.9914   -63.2690   181.3287 H6            1 RES     
   20554 H6        -277.1601   -70.4625   183.1697 H6            1 RES     
   20555 H6        -277.5760   -71.7378   181.9629 H6            1 RES     
   20556 H6        -276.1945   -70.9797   180.2684 H6            1 RES     
   20557 H6        -275.4261   -69.7141   181.1853 H6            1 RES     
   20558 H6        -274.1406   -71.5728   180.6631 H6            1 RES     
   20559 H6        -274.9888   -72.6844   181.7487 H6            1 RES     
   20560 H6        -273.9506   -71.5012   183.7089 H6            1 RES     
   20561 H6        -273.5608   -70.0588   182.6977 H6            1 RES     
   20562 H6        -272.0278   -71.2623   181.2736 H6            1 RES     
   20563 H6        -272.2866   -72.8131   182.1563 H6            1 RES     
   20564 H6        -271.1362   -71.8951   184.1410 H6            1 RES     
   20565 H6        -271.0151   -70.2623   183.3701 H6            1 RES     
   20566 H6        -269.6429   -71.1651   181.5131 H6            1 RES     
   20567 H6        -269.7587   -72.8339   182.1844 H6            1 RES     
   20568 H6        -268.4889   -72.1281   184.2031 H6            1 RES     
   20569 H6        -268.3899   -70.4334   183.5609 H6            1 RES     
   20570 H6        -267.5800   -71.7841   182.6869 H6            1 RES     
   20571 C0        -289.2545   -70.4382   173.5093 C0            1 RES     
   20572 C1        -289.8694   -71.6114   173.8474 C1            1 RES     
   20573 C1        -290.5120   -71.5580   175.0310 C1            1 RES     
   20574 C1        -290.3459   -70.4115   175.6127 C1            1 RES     
   20575 C1        -289.4901   -69.5390   174.7898 C1            1 RES     
   20576 C1        -288.3657   -69.4641   175.8117 C1            1 RES     
   20577 C1        -288.6646   -69.8245   177.0938 C1            1 RES     
   20578 S2        -290.4396   -70.1618   177.3511 S2            1 RES     
   20579 C1        -287.6167   -69.9911   178.1865 C1            1 RES     
   20580 C1        -286.3026   -69.4569   178.0399 C1            1 RES     
   20581 N3        -285.3501   -69.6224   179.0030 N3            1 RES     
   20582 C1        -285.5733   -70.3143   180.1426 C1            1 RES     
   20583 C1        -286.8241   -70.8834   180.3472 C1            1 RES     
   20584 C1        -287.8547   -70.7174   179.3726 C1            1 RES     
   20585 N3        -289.0315   -71.3317   179.6813 N3            1 RES     
   20586 S2        -288.7080   -72.0306   181.1481 S2            1 RES     
   20587 N3        -287.1374   -71.6146   181.4445 N3            1 RES     
   20588 S2        -291.1593   -73.0244   175.5124 S2            1 RES     
   20589 C1        -290.6070   -73.8070   174.1161 C1            1 RES     
   20590 C1        -289.8806   -72.9134   173.3196 C1            1 RES     
   20591 C0        -289.9531   -69.9235   172.1597 C0            1 RES     
   20592 C0        -291.1987   -70.1780   171.1706 C0            1 RES     
   20593 C0        -291.4036   -71.6458   170.6795 C0            1 RES     
   20594 C0        -292.8020   -72.1701   171.0570 C0            1 RES     
   20595 C0        -293.0119   -73.6684   170.7735 C0            1 RES     
   20596 C0        -294.4725   -74.0486   171.0832 C0            1 RES     
   20597 C0        -294.7243   -75.5603   171.0218 C0            1 RES     
   20598 C0        -296.1963   -75.8719   171.3020 C0            1 RES     
   20599 C0        -290.9296   -69.2159   169.9293 C0            1 RES     
   20600 C0        -291.8126   -69.0560   168.6520 C0            1 RES     
   20601 C0        -291.6142   -70.0918   167.5031 C0            1 RES     
   20602 C0        -291.9367   -69.4697   166.1097 C0            1 RES     
   20603 C0        -291.6564   -70.4199   164.9269 C0            1 RES     
   20604 C0        -291.4776   -69.7013   163.5641 C0            1 RES     
   20605 C0        -292.6697   -68.8522   163.0993 C0            1 RES     
   20606 C0        -292.3886   -68.2322   161.7238 C0            1 RES     
   20607 C0        -287.7335   -70.6301   173.0372 C0            1 RES     
   20608 C0        -286.7554   -69.5095   172.3488 C0            1 RES     
   20609 C0        -287.3101   -68.9603   170.9735 C0            1 RES     
   20610 C0        -286.3825   -68.1662   170.0594 C0            1 RES     
   20611 C0        -286.9577   -67.8155   168.6754 C0            1 RES     
   20612 C0        -288.0414   -66.7187   168.7301 C0            1 RES     
   20613 C0        -288.2288   -66.0177   167.3724 C0            1 RES     
   20614 C0        -288.8033   -66.9160   166.2908 C0            1 RES     
   20615 C0        -286.0783   -68.3794   173.2505 C0            1 RES     
   20616 C0        -284.6428   -67.9973   172.7240 C0            1 RES     
   20617 C0        -283.6628   -67.0542   173.4749 C0            1 RES     
   20618 C0        -283.7505   -65.5124   173.2276 C0            1 RES     
   20619 C0        -282.3128   -64.9129   173.3212 C0            1 RES     
   20620 C0        -282.1566   -63.3954   173.0825 C0            1 RES     
   20621 C0        -280.6506   -63.0522   172.9601 C0            1 RES     
   20622 C0        -280.3751   -61.5601   172.7807 C0            1 RES     
   20623 H4        -287.3747   -69.2319   175.5214 H4            1 RES     
   20624 H5        -286.0310   -68.8849   177.1676 H5            1 RES     
   20625 H4        -289.3733   -73.2275   172.4212 H4            1 RES     
   20626 H6        -289.9898   -68.8254   172.3247 H6            1 RES     
   20627 H6        -289.2684   -70.2283   171.3943 H6            1 RES     
   20628 H6        -292.1277   -69.8288   171.6727 H6            1 RES     
   20629 H6        -291.2783   -71.7389   169.5859 H6            1 RES     
   20630 H6        -290.6175   -72.2901   171.0559 H6            1 RES     
   20631 H6        -292.9645   -72.0160   172.1466 H6            1 RES     
   20632 H6        -293.5527   -71.5730   170.4937 H6            1 RES     
   20633 H6        -292.7894   -73.9106   169.7109 H6            1 RES     
   20634 H6        -292.3213   -74.2492   171.4242 H6            1 RES     
   20635 H6        -295.1348   -73.5303   170.3539 H6            1 RES     
   20636 H6        -294.7340   -73.7035   172.1073 H6            1 RES     
   20637 H6        -294.4553   -75.9611   170.0211 H6            1 RES     
   20638 H6        -294.0997   -76.0657   171.7908 H6            1 RES     
   20639 H6        -296.4975   -75.4745   172.2955 H6            1 RES     
   20640 H6        -296.8418   -75.4147   170.5214 H6            1 RES     
   20641 H6        -296.3604   -76.9699   171.2980 H6            1 RES     
   20642 H6        -290.9040   -68.1977   170.3760 H6            1 RES     
   20643 H6        -289.9103   -69.4123   169.5284 H6            1 RES     
   20644 H6        -292.8821   -68.8743   168.8800 H6            1 RES     
   20645 H6        -291.4189   -68.1063   168.2249 H6            1 RES     
   20646 H6        -290.5373   -70.3720   167.4617 H6            1 RES     
   20647 H6        -292.2135   -71.0071   167.6841 H6            1 RES     
   20648 H6        -292.9825   -69.1001   166.0584 H6            1 RES     
   20649 H6        -291.2688   -68.6054   165.9765 H6            1 RES     
   20650 H6        -290.6900   -70.9408   165.1040 H6            1 RES     
   20651 H6        -292.4554   -71.1894   164.8718 H6            1 RES     
   20652 H6        -291.2718   -70.4779   162.7944 H6            1 RES     
   20653 H6        -290.5827   -69.0421   163.6236 H6            1 RES     
   20654 H6        -292.8484   -68.0295   163.8236 H6            1 RES     
   20655 H6        -293.5809   -69.4817   163.0289 H6            1 RES     
   20656 H6        -292.2342   -69.0267   160.9619 H6            1 RES     
   20657 H6        -291.4817   -67.5899   161.7574 H6            1 RES     
   20658 H6        -293.2484   -67.6053   161.4052 H6            1 RES     
   20659 H6        -287.1766   -71.0548   173.9011 H6            1 RES     
   20660 H6        -287.7423   -71.4539   172.2873 H6            1 RES     
   20661 H6        -285.8963   -70.1620   172.0806 H6            1 RES     
   20662 H6        -288.1869   -68.3104   171.1553 H6            1 RES     
   20663 H6        -287.5653   -69.8481   170.3561 H6            1 RES     
   20664 H6        -286.1479   -67.1908   170.5207 H6            1 RES     
   20665 H6        -285.4722   -68.7831   169.8965 H6            1 RES     
   20666 H6        -286.0985   -67.3973   168.1094 H6            1 RES     
   20667 H6        -287.3139   -68.7206   168.1347 H6            1 RES     
   20668 H6        -287.6986   -65.9199   169.4215 H6            1 RES     
   20669 H6        -289.0002   -67.1187   169.1220 H6            1 RES     
   20670 H6        -287.2496   -65.6168   167.0312 H6            1 RES     
   20671 H6        -288.9210   -65.1583   167.5064 H6            1 RES     
   20672 H6        -288.8946   -66.3439   165.3425 H6            1 RES     
   20673 H6        -289.8068   -67.2294   166.6121 H6            1 RES     
   20674 H6        -288.1628   -67.8028   166.1072 H6            1 RES     
   20675 H6        -286.7566   -67.5099   173.3942 H6            1 RES     
   20676 H6        -285.8372   -68.8164   174.2330 H6            1 RES     
   20677 H6        -284.1128   -68.9738   172.6981 H6            1 RES     
   20678 H6        -284.6045   -67.6314   171.7035 H6            1 RES     
   20679 H6        -282.7008   -67.3482   172.9979 H6            1 RES     
   20680 H6        -283.5490   -67.3003   174.5509 H6            1 RES     
   20681 H6        -284.4613   -65.0390   173.9392 H6            1 RES     
   20682 H6        -284.1010   -65.3090   172.1922 H6            1 RES     
   20683 H6        -281.7131   -65.4150   172.5284 H6            1 RES     
   20684 H6        -281.8631   -65.1595   174.3070 H6            1 RES     
   20685 H6        -282.6143   -62.8365   173.9271 H6            1 RES     
   20686 H6        -282.6593   -63.0972   172.1368 H6            1 RES     
   20687 H6        -280.2292   -63.5849   172.0778 H6            1 RES     
   20688 H6        -280.1062   -63.3959   173.8662 H6            1 RES     
   20689 H6        -280.7166   -60.9928   173.6712 H6            1 RES     
   20690 H6        -280.8787   -61.1693   171.8721 H6            1 RES     
   20691 H6        -279.2790   -61.4015   172.6665 H6            1 RES     
   20692 C0        -289.2955   -82.7408   172.3119 C0            1 RES     
   20693 C1        -289.4997   -83.0718   173.6225 C1            1 RES     
   20694 C1        -290.6940   -82.6662   174.0978 C1            1 RES     
   20695 C1        -291.3573   -81.9935   173.2100 C1            1 RES     
   20696 C1        -290.5766   -81.8791   171.9658 C1            1 RES     
   20697 C1        -290.4449   -80.3652   172.0377 C1            1 RES     
   20698 C1        -291.3067   -79.7039   172.8640 C1            1 RES     
   20699 S2        -292.5804   -80.7890   173.5925 S2            1 RES     
   20700 C1        -291.1828   -78.2227   173.1968 C1            1 RES     
   20701 C1        -290.3716   -77.3524   172.4105 C1            1 RES     
   20702 N3        -290.2354   -76.0293   172.7156 N3            1 RES     
   20703 C1        -290.8348   -75.4587   173.7845 C1            1 RES     
   20704 C1        -291.6244   -76.2483   174.6110 C1            1 RES     
   20705 C1        -291.8083   -77.6335   174.3160 C1            1 RES     
   20706 N3        -292.5934   -78.3036   175.2061 N3            1 RES     
   20707 S2        -293.0087   -77.1232   176.2918 S2            1 RES     
   20708 N3        -292.2462   -75.7750   175.7183 N3            1 RES     
   20709 S2        -290.9008   -82.9543   175.7335 S2            1 RES     
   20710 C1        -289.3703   -83.6652   175.8737 C1            1 RES     
   20711 C1        -288.7040   -83.6186   174.6431 C1            1 RES     
   20712 C0        -289.1462   -84.1200   171.5057 C0            1 RES     
   20713 C0        -289.3165   -85.7167   171.6329 C0            1 RES     
   20714 C0        -288.6174   -86.3918   172.8548 C0            1 RES     
   20715 C0        -289.6326   -87.1547   173.7266 C0            1 RES     
   20716 C0        -289.0530   -87.6894   175.0487 C0            1 RES     
   20717 C0        -290.1232   -88.5255   175.7761 C0            1 RES     
   20718 C0        -289.7042   -88.9326   177.1943 C0            1 RES     
   20719 C0        -290.7897   -89.7889   177.8506 C0            1 RES     
   20720 C0        -288.7223   -86.2942   170.2719 C0            1 RES     
   20721 C0        -288.6153   -87.7937   169.8514 C0            1 RES     
   20722 C0        -287.3905   -88.6046   170.3753 C0            1 RES     
   20723 C0        -286.9911   -89.7417   169.3853 C0            1 RES     
   20724 C0        -285.7199   -90.5094   169.8035 C0            1 RES     
   20725 C0        -285.0246   -91.2663   168.6420 C0            1 RES     
   20726 C0        -285.8858   -92.3143   167.9223 C0            1 RES     
   20727 C0        -285.0748   -93.0220   166.8282 C0            1 RES     
   20728 C0        -287.8725   -82.0504   172.0445 C0            1 RES     
   20729 C0        -287.1802   -81.7245   170.5950 C0            1 RES     
   20730 C0        -286.9273   -83.0183   169.7215 C0            1 RES     
   20731 C0        -286.0116   -82.9289   168.5049 C0            1 RES     
   20732 C0        -285.6946   -84.2679   167.8150 C0            1 RES     
   20733 C0        -286.8898   -84.8400   167.0248 C0            1 RES     
   20734 C0        -286.4470   -85.8485   165.9492 C0            1 RES     
   20735 C0        -285.8542   -87.1281   166.5131 C0            1 RES     
   20736 C0        -287.6765   -80.4731   169.7370 C0            1 RES     
   20737 C0        -286.4916   -79.8084   168.9382 C0            1 RES     
   20738 C0        -286.6148   -78.4786   168.1445 C0            1 RES     
   20739 C0        -287.0930   -78.5221   166.6561 C0            1 RES     
   20740 C0        -286.3668   -77.3871   165.8689 C0            1 RES     
   20741 C0        -286.6710   -77.2590   164.3605 C0            1 RES     
   20742 C0        -285.6701   -76.2628   163.7228 C0            1 RES     
   20743 C0        -285.9178   -76.0133   162.2358 C0            1 RES     
   20744 H4        -289.6600   -79.8583   171.5403 H4            1 RES     
   20745 H5        -289.8582   -77.7143   171.5346 H5            1 RES     
   20746 H4        -287.6830   -83.9473   174.5306 H4            1 RES     
   20747 H6        -289.6778   -83.8902   170.5576 H6            1 RES     
   20748 H6        -288.0861   -84.2303   171.3972 H6            1 RES     
   20749 H6        -290.4021   -85.9571   171.6557 H6            1 RES     
   20750 H6        -287.8252   -87.0958   172.5429 H6            1 RES     
   20751 H6        -288.0612   -85.6616   173.4310 H6            1 RES     
   20752 H6        -290.4708   -86.4718   173.9879 H6            1 RES     
   20753 H6        -290.0321   -87.9997   173.1233 H6            1 RES     
   20754 H6        -288.1569   -88.3227   174.8666 H6            1 RES     
   20755 H6        -288.7551   -86.8218   175.6780 H6            1 RES     
   20756 H6        -290.3302   -89.4374   175.1722 H6            1 RES     
   20757 H6        -291.0610   -87.9336   175.8574 H6            1 RES     
   20758 H6        -288.7550   -89.5096   177.1708 H6            1 RES     
   20759 H6        -289.5528   -88.0168   177.8069 H6            1 RES     
   20760 H6        -291.7557   -89.2398   177.8806 H6            1 RES     
   20761 H6        -290.9308   -90.7334   177.2822 H6            1 RES     
   20762 H6        -290.4970   -90.0427   178.8911 H6            1 RES     
   20763 H6        -289.3536   -85.8308   169.4822 H6            1 RES     
   20764 H6        -287.6918   -85.9001   170.1262 H6            1 RES     
   20765 H6        -289.5695   -88.3473   169.9608 H6            1 RES     
   20766 H6        -288.4286   -87.7069   168.7574 H6            1 RES     
   20767 H6        -286.5093   -87.9253   170.4191 H6            1 RES     
   20768 H6        -287.5827   -89.0044   171.3917 H6            1 RES     
   20769 H6        -287.8268   -90.4543   169.2216 H6            1 RES     
   20770 H6        -286.7615   -89.2668   168.4196 H6            1 RES     
   20771 H6        -284.9610   -89.7810   170.1644 H6            1 RES     
   20772 H6        -285.9607   -91.1970   170.6419 H6            1 RES     
   20773 H6        -284.1226   -91.7696   169.0556 H6            1 RES     
   20774 H6        -284.6788   -90.5231   167.8889 H6            1 RES     
   20775 H6        -286.7580   -91.8190   167.4457 H6            1 RES     
   20776 H6        -286.2473   -93.0728   168.6473 H6            1 RES     
   20777 H6        -284.2069   -93.5575   167.2705 H6            1 RES     
   20778 H6        -284.6986   -92.2911   166.0797 H6            1 RES     
   20779 H6        -285.7115   -93.7642   166.3014 H6            1 RES     
   20780 H6        -287.8562   -81.1037   172.6279 H6            1 RES     
   20781 H6        -287.1152   -82.6937   172.5482 H6            1 RES     
   20782 H6        -286.1749   -81.4038   170.9446 H6            1 RES     
   20783 H6        -287.8911   -83.4130   169.3480 H6            1 RES     
   20784 H6        -286.3998   -83.7455   170.3753 H6            1 RES     
   20785 H6        -286.4902   -82.3161   167.7208 H6            1 RES     
   20786 H6        -285.0482   -82.4934   168.8482 H6            1 RES     
   20787 H6        -284.9014   -84.0249   167.0765 H6            1 RES     
   20788 H6        -285.2783   -85.0124   168.5297 H6            1 RES     
   20789 H6        -287.3686   -84.0108   166.4621 H6            1 RES     
   20790 H6        -287.6525   -85.2734   167.7055 H6            1 RES     
   20791 H6        -285.7014   -85.3648   165.2813 H6            1 RES     
   20792 H6        -287.3297   -86.1235   165.3322 H6            1 RES     
   20793 H6        -285.5477   -87.7948   165.6786 H6            1 RES     
   20794 H6        -286.6368   -87.6318   167.0982 H6            1 RES     
   20795 H6        -284.9671   -86.9276   167.1481 H6            1 RES     
   20796 H6        -288.5592   -80.7303   169.1113 H6            1 RES     
   20797 H6        -287.9492   -79.6616   170.4310 H6            1 RES     
   20798 H6        -285.7453   -79.5831   169.7303 H6            1 RES     
   20799 H6        -285.9742   -80.4629   168.2448 H6            1 RES     
   20800 H6        -285.5418   -78.1905   168.0733 H6            1 RES     
   20801 H6        -287.1041   -77.6646   168.7184 H6            1 RES     
   20802 H6        -288.2005   -78.4470   166.5957 H6            1 RES     
   20803 H6        -286.7783   -79.4760   166.1795 H6            1 RES     
   20804 H6        -285.2766   -77.6003   165.9486 H6            1 RES     
   20805 H6        -286.5659   -76.4054   166.3499 H6            1 RES     
   20806 H6        -287.7146   -76.9037   164.2198 H6            1 RES     
   20807 H6        -286.5525   -78.2423   163.8555 H6            1 RES     
   20808 H6        -284.6383   -76.6668   163.8330 H6            1 RES     
   20809 H6        -285.7183   -75.2847   164.2483 H6            1 RES     
   20810 H6        -286.9114   -75.5440   162.0815 H6            1 RES     
   20811 H6        -285.8568   -76.9592   161.6584 H6            1 RES     
   20812 H6        -285.1403   -75.3175   161.8470 H6            1 RES     
   20813 C0        -284.0537   -85.1635   183.2409 C0            1 RES     
   20814 C1        -284.8777   -84.4129   184.0323 C1            1 RES     
   20815 C1        -286.1531   -84.8486   184.0433 C1            1 RES     
   20816 C1        -286.3205   -85.8546   183.2431 C1            1 RES     
   20817 C1        -285.0545   -86.1870   182.5667 C1            1 RES     
   20818 C1        -285.5647   -85.8551   181.1725 C1            1 RES     
   20819 C1        -286.9174   -85.7792   181.0064 C1            1 RES     
   20820 S2        -287.8538   -86.2762   182.4918 S2            1 RES     
   20821 C1        -287.5809   -85.2710   179.7330 C1            1 RES     
   20822 C1        -286.8530   -85.1615   178.5116 C1            1 RES     
   20823 N3        -287.4327   -84.6843   177.3721 N3            1 RES     
   20824 C1        -288.7172   -84.2657   177.3238 C1            1 RES     
   20825 C1        -289.4844   -84.3215   178.4806 C1            1 RES     
   20826 C1        -288.9213   -84.8323   179.6897 C1            1 RES     
   20827 N3        -289.7684   -84.8247   180.7573 N3            1 RES     
   20828 S2        -291.1594   -84.1905   180.1189 S2            1 RES     
   20829 N3        -290.7722   -83.9033   178.5392 N3            1 RES     
   20830 S2        -287.1940   -83.8627   184.9069 S2            1 RES     
   20831 C1        -285.9483   -82.7947   185.3254 C1            1 RES     
   20832 C1        -284.7455   -83.2049   184.7375 C1            1 RES     
   20833 C0        -282.9466   -85.8074   184.2075 C0            1 RES     
   20834 C0        -282.5547   -86.0345   185.7533 C0            1 RES     
   20835 C0        -282.5663   -84.7661   186.6635 C0            1 RES     
   20836 C0        -283.5288   -84.9421   187.8532 C0            1 RES     
   20837 C0        -283.7370   -83.6673   188.6905 C0            1 RES     
   20838 C0        -284.6225   -83.9934   189.9084 C0            1 RES     
   20839 C0        -285.0488   -82.7450   190.6910 C0            1 RES     
   20840 C0        -285.8939   -83.1348   191.9060 C0            1 RES     
   20841 C0        -281.0924   -86.6656   185.7090 C0            1 RES     
   20842 C0        -280.2069   -87.0791   186.9262 C0            1 RES     
   20843 C0        -279.3732   -85.9615   187.6249 C0            1 RES     
   20844 C0        -278.0680   -86.5331   188.2592 C0            1 RES     
   20845 C0        -277.1529   -85.4534   188.8733 C0            1 RES     
   20846 C0        -275.6760   -85.8951   189.0437 C0            1 RES     
   20847 C0        -275.4502   -87.1339   189.9226 C0            1 RES     
   20848 C0        -273.9518   -87.4414   190.0492 C0            1 RES     
   20849 C0        -283.1499   -84.2845   182.2491 C0            1 RES     
   20850 C0        -281.8979   -84.7976   181.3242 C0            1 RES     
   20851 C0        -280.7086   -85.4071   182.1698 C0            1 RES     
   20852 C0        -279.3560   -85.6297   181.5010 C0            1 RES     
   20853 C0        -278.2178   -86.0698   182.4392 C0            1 RES     
   20854 C0        -278.3577   -87.5299   182.9177 C0            1 RES     
   20855 C0        -277.0172   -88.1163   183.3961 C0            1 RES     
   20856 C0        -276.4767   -87.4656   184.6577 C0            1 RES     
   20857 C0        -282.1802   -85.5947   179.9701 C0            1 RES     
   20858 C0        -281.1076   -85.2616   178.8644 C0            1 RES     
   20859 C0        -281.1976   -85.7453   177.3907 C0            1 RES     
   20860 C0        -280.6034   -87.1410   177.0102 C0            1 RES     
   20861 C0        -280.0319   -87.0577   175.5605 C0            1 RES     
   20862 C0        -279.3671   -88.3259   174.9827 C0            1 RES     
   20863 C0        -278.6441   -87.9638   173.6609 C0            1 RES     
   20864 C0        -277.9977   -89.1625   172.9681 C0            1 RES     
   20865 H4        -284.8984   -85.6036   180.3896 H4            1 RES     
   20866 H5        -285.8239   -85.4759   178.4497 H5            1 RES     
   20867 H4        -283.8420   -82.6209   184.8120 H4            1 RES     
   20868 H6        -282.8216   -86.8210   183.7701 H6            1 RES     
   20869 H6        -282.0986   -85.1661   184.0750 H6            1 RES     
   20870 H6        -283.2387   -86.7984   186.1843 H6            1 RES     
   20871 H6        -281.5619   -84.5292   187.0580 H6            1 RES     
   20872 H6        -282.8001   -83.8801   186.0848 H6            1 RES     
   20873 H6        -284.5265   -85.2496   187.4694 H6            1 RES     
   20874 H6        -283.1266   -85.7536   188.4992 H6            1 RES     
   20875 H6        -282.7657   -83.2573   189.0451 H6            1 RES     
   20876 H6        -284.2346   -82.9047   188.0515 H6            1 RES     
   20877 H6        -284.0606   -84.6807   190.5800 H6            1 RES     
   20878 H6        -285.5459   -84.5091   189.5653 H6            1 RES     
   20879 H6        -284.1584   -82.1784   191.0381 H6            1 RES     
   20880 H6        -285.6562   -82.0894   190.0290 H6            1 RES     
   20881 H6        -286.7898   -83.7120   191.5899 H6            1 RES     
   20882 H6        -285.2958   -83.7554   192.6076 H6            1 RES     
   20883 H6        -286.2335   -82.2235   192.4415 H6            1 RES     
   20884 H6        -281.2204   -87.6060   185.1291 H6            1 RES     
   20885 H6        -280.4283   -86.0082   185.1047 H6            1 RES     
   20886 H6        -280.7366   -87.7297   187.6509 H6            1 RES     
   20887 H6        -279.4379   -87.7183   186.4372 H6            1 RES     
   20888 H6        -279.0348   -85.2365   186.8505 H6            1 RES     
   20889 H6        -279.9830   -85.4207   188.3768 H6            1 RES     
   20890 H6        -278.2888   -87.3164   189.0147 H6            1 RES     
   20891 H6        -277.4906   -87.0027   187.4486 H6            1 RES     
   20892 H6        -277.1125   -84.5809   188.1850 H6            1 RES     
   20893 H6        -277.5815   -85.1089   189.8383 H6            1 RES     
   20894 H6        -275.1136   -85.0405   189.4812 H6            1 RES     
   20895 H6        -275.2468   -86.0993   188.0371 H6            1 RES     
   20896 H6        -275.9501   -88.0137   189.4652 H6            1 RES     
   20897 H6        -275.8675   -86.9623   190.9365 H6            1 RES     
   20898 H6        -273.4191   -86.5940   190.5326 H6            1 RES     
   20899 H6        -273.4996   -87.6230   189.0499 H6            1 RES     
   20900 H6        -273.8002   -88.3494   190.6709 H6            1 RES     
   20901 H6        -283.8453   -83.7392   181.5739 H6            1 RES     
   20902 H6        -282.6923   -83.4833   182.8734 H6            1 RES     
   20903 H6        -281.5279   -83.8141   180.9618 H6            1 RES     
   20904 H6        -281.0076   -86.3884   182.5846 H6            1 RES     
   20905 H6        -280.4727   -84.6683   182.9654 H6            1 RES     
   20906 H6        -279.4357   -86.4419   180.7571 H6            1 RES     
   20907 H6        -279.0538   -84.6652   181.0384 H6            1 RES     
   20908 H6        -277.3005   -86.0173   181.8153 H6            1 RES     
   20909 H6        -278.0905   -85.3666   183.2922 H6            1 RES     
   20910 H6        -278.6531   -88.1574   182.0503 H6            1 RES     
   20911 H6        -279.1481   -87.6263   183.6916 H6            1 RES     
   20912 H6        -276.2651   -88.0162   182.5835 H6            1 RES     
   20913 H6        -277.1543   -89.1999   183.6022 H6            1 RES     
   20914 H6        -275.5051   -87.9317   184.9291 H6            1 RES     
   20915 H6        -277.1964   -87.6527   185.4672 H6            1 RES     
   20916 H6        -276.3200   -86.3755   184.5255 H6            1 RES     
   20917 H6        -282.3187   -86.6822   180.1568 H6            1 RES     
   20918 H6        -283.0954   -85.1871   179.5109 H6            1 RES     
   20919 H6        -281.1547   -84.1539   178.7893 H6            1 RES     
   20920 H6        -280.0797   -85.4801   179.1337 H6            1 RES     
   20921 H6        -280.5104   -85.0187   176.9017 H6            1 RES     
   20922 H6        -282.1914   -85.5726   176.9284 H6            1 RES     
   20923 H6        -281.3680   -87.9396   177.1261 H6            1 RES     
   20924 H6        -279.7395   -87.3825   177.6672 H6            1 RES     
   20925 H6        -279.2404   -86.2746   175.5816 H6            1 RES     
   20926 H6        -280.8279   -86.7297   174.8579 H6            1 RES     
   20927 H6        -280.1411   -89.1025   174.8011 H6            1 RES     
   20928 H6        -278.6122   -88.7269   175.6935 H6            1 RES     
   20929 H6        -277.8418   -87.2232   173.8791 H6            1 RES     
   20930 H6        -279.3607   -87.5003   172.9488 H6            1 RES     
   20931 H6        -278.7706   -89.9000   172.6676 H6            1 RES     
   20932 H6        -277.2524   -89.6501   173.6304 H6            1 RES     
   20933 H6        -277.4727   -88.8151   172.0498 H6            1 RES     
   20934 C0        -286.1965   -74.0635   188.2395 C0            1 RES     
   20935 C1        -287.5342   -73.9751   187.9721 C1            1 RES     
   20936 C1        -288.2715   -74.9029   188.6141 C1            1 RES     
   20937 C1        -287.5271   -75.7145   189.2979 C1            1 RES     
   20938 C1        -286.1052   -75.3632   189.1374 C1            1 RES     
   20939 C1        -285.7296   -76.6669   188.4492 C1            1 RES     
   20940 C1        -286.6009   -77.7101   188.5736 C1            1 RES     
   20941 S2        -287.9825   -77.3615   189.7139 S2            1 RES     
   20942 C1        -286.4715   -79.0115   187.7930 C1            1 RES     
   20943 C1        -285.2545   -79.3648   187.1389 C1            1 RES     
   20944 N3        -285.1371   -80.5169   186.4170 N3            1 RES     
   20945 C1        -286.1593   -81.3861   186.2535 C1            1 RES     
   20946 C1        -287.3840   -81.0993   186.8434 C1            1 RES     
   20947 C1        -287.5433   -79.9134   187.6231 C1            1 RES     
   20948 N3        -288.7925   -79.7373   188.1389 N3            1 RES     
   20949 S2        -289.6070   -81.0733   187.5947 S2            1 RES     
   20950 N3        -288.4741   -81.8948   186.7175 N3            1 RES     
   20951 S2        -289.8918   -74.8834   188.1950 S2            1 RES     
   20952 C1        -289.6717   -73.5911   187.1232 C1            1 RES     
   20953 C1        -288.3196   -73.2303   187.0763 C1            1 RES     
   20954 C0        -285.7780   -72.6911   188.9577 C0            1 RES     
   20955 C0        -286.3679   -71.3481   189.6233 C0            1 RES     
   20956 C0        -287.4016   -70.5489   188.7687 C0            1 RES     
   20957 C0        -288.7386   -70.3887   189.5168 C0            1 RES     
   20958 C0        -289.8674   -69.7765   188.6680 C0            1 RES     
   20959 C0        -291.1124   -69.5618   189.5497 C0            1 RES     
   20960 C0        -292.3503   -69.1425   188.7469 C0            1 RES     
   20961 C0        -293.5419   -68.9099   189.6788 C0            1 RES     
   20962 C0        -285.0862   -70.4486   189.9177 C0            1 RES     
   20963 C0        -285.0611   -69.0219   190.5507 C0            1 RES     
   20964 C0        -285.3189   -67.8084   189.6056 C0            1 RES     
   20965 C0        -284.5848   -66.5267   190.1067 C0            1 RES     
   20966 C0        -284.7200   -65.3220   189.1524 C0            1 RES     
   20967 C0        -283.6295   -64.2357   189.3432 C0            1 RES     
   20968 C0        -283.5537   -63.6091   190.7431 C0            1 RES     
   20969 C0        -282.4708   -62.5224   190.7914 C0            1 RES     
   20970 C0        -285.2812   -74.0353   186.9225 C0            1 RES     
   20971 C0        -283.6501   -73.8934   186.8460 C0            1 RES     
   20972 C0        -283.1127   -72.5460   187.4759 C0            1 RES     
   20973 C0        -281.6755   -72.1159   187.2006 C0            1 RES     
   20974 C0        -281.2929   -70.7166   187.7157 C0            1 RES     
   20975 C0        -281.1456   -70.6555   189.2502 C0            1 RES     
   20976 C0        -280.2859   -69.4623   189.7051 C0            1 RES     
   20977 C0        -280.9214   -68.1090   189.4372 C0            1 RES     
   20978 C0        -282.7235   -75.1526   187.1690 C0            1 RES     
   20979 C0        -281.4190   -75.1573   186.2845 C0            1 RES     
   20980 C0        -280.4003   -76.3295   186.2423 C0            1 RES     
   20981 C0        -279.2371   -76.3649   187.2871 C0            1 RES     
   20982 C0        -277.9798   -76.9920   186.6081 C0            1 RES     
   20983 C0        -276.6935   -77.1032   187.4548 C0            1 RES     
   20984 C0        -275.5116   -77.4996   186.5346 C0            1 RES     
   20985 C0        -274.1932   -77.6967   187.2815 C0            1 RES     
   20986 H4        -284.8767   -76.7326   187.8258 H4            1 RES     
   20987 H5        -284.3815   -78.7374   187.2160 H5            1 RES     
   20988 H4        -287.9492   -72.4798   186.3961 H4            1 RES     
   20989 H6        -285.0488   -73.0433   189.7184 H6            1 RES     
   20990 H6        -285.3407   -72.1194   188.1642 H6            1 RES     
   20991 H6        -286.8284   -71.6094   190.6014 H6            1 RES     
   20992 H6        -287.0290   -69.5446   188.4989 H6            1 RES     
   20993 H6        -287.5370   -71.0115   187.7980 H6            1 RES     
   20994 H6        -289.0871   -71.3898   189.8540 H6            1 RES     
   20995 H6        -288.5542   -69.7526   190.4106 H6            1 RES     
   20996 H6        -289.5572   -68.8017   188.2312 H6            1 RES     
   20997 H6        -290.1046   -70.4797   187.8392 H6            1 RES     
   20998 H6        -290.8781   -68.7815   190.3082 H6            1 RES     
   20999 H6        -291.3572   -70.5086   190.0787 H6            1 RES     
   21000 H6        -292.1499   -68.2093   188.1784 H6            1 RES     
   21001 H6        -292.6108   -69.9514   188.0293 H6            1 RES     
   21002 H6        -293.7614   -69.8263   190.2686 H6            1 RES     
   21003 H6        -293.3252   -68.0750   190.3795 H6            1 RES     
   21004 H6        -294.4436   -68.6490   189.0859 H6            1 RES     
   21005 H6        -284.4734   -71.0677   190.6091 H6            1 RES     
   21006 H6        -284.4942   -70.3378   188.9820 H6            1 RES     
   21007 H6        -285.6356   -68.9533   191.4964 H6            1 RES     
   21008 H6        -283.9882   -68.9190   190.8292 H6            1 RES     
   21009 H6        -284.8751   -68.0352   188.6099 H6            1 RES     
   21010 H6        -286.4054   -67.6264   189.4781 H6            1 RES     
   21011 H6        -284.9135   -66.2394   191.1278 H6            1 RES     
   21012 H6        -283.5114   -66.7640   190.1545 H6            1 RES     
   21013 H6        -284.5915   -65.6748   188.1057 H6            1 RES     
   21014 H6        -285.7380   -64.8877   189.2451 H6            1 RES     
   21015 H6        -283.8198   -63.4286   188.6015 H6            1 RES     
   21016 H6        -282.6373   -64.6816   189.1071 H6            1 RES     
   21017 H6        -283.2983   -64.3904   191.4898 H6            1 RES     
   21018 H6        -284.5300   -63.1539   191.0097 H6            1 RES     
   21019 H6        -282.7073   -61.7040   190.0774 H6            1 RES     
   21020 H6        -281.4754   -62.9444   190.5325 H6            1 RES     
   21021 H6        -282.4111   -62.0888   191.8123 H6            1 RES     
   21022 H6        -285.5543   -74.9282   186.3183 H6            1 RES     
   21023 H6        -285.6395   -73.1742   186.3132 H6            1 RES     
   21024 H6        -283.5321   -73.7726   185.7473 H6            1 RES     
   21025 H6        -283.2141   -72.5802   188.5771 H6            1 RES     
   21026 H6        -283.7079   -71.7239   187.0239 H6            1 RES     
   21027 H6        -280.9757   -72.8025   187.7089 H6            1 RES     
   21028 H6        -281.5364   -72.1156   186.0978 H6            1 RES     
   21029 H6        -280.2888   -70.5207   187.2834 H6            1 RES     
   21030 H6        -281.9861   -69.9331   187.3363 H6            1 RES     
   21031 H6        -280.5889   -71.5559   189.5862 H6            1 RES     
   21032 H6        -282.1367   -70.6625   189.7508 H6            1 RES     
   21033 H6        -279.2991   -69.5089   189.1951 H6            1 RES     
   21034 H6        -280.1085   -69.5461   190.7992 H6            1 RES     
   21035 H6        -280.2370   -67.3030   189.7789 H6            1 RES     
   21036 H6        -281.8516   -68.0531   190.0204 H6            1 RES     
   21037 H6        -281.1328   -67.9583   188.3588 H6            1 RES     
   21038 H6        -282.5337   -75.2515   188.2603 H6            1 RES     
   21039 H6        -283.2318   -76.0606   186.8064 H6            1 RES     
   21040 H6        -281.8144   -75.1045   185.2473 H6            1 RES     
   21041 H6        -280.7853   -74.2828   186.3869 H6            1 RES     
   21042 H6        -279.8882   -76.1119   185.2780 H6            1 RES     
   21043 H6        -280.8750   -77.3236   186.1096 H6            1 RES     
   21044 H6        -279.5479   -76.9106   188.2044 H6            1 RES     
   21045 H6        -278.9471   -75.3306   187.5740 H6            1 RES     
   21046 H6        -277.7284   -76.3321   185.7469 H6            1 RES     
   21047 H6        -278.2264   -78.0011   186.2133 H6            1 RES     
   21048 H6        -276.8367   -77.8645   188.2517 H6            1 RES     
   21049 H6        -276.4538   -76.1258   187.9272 H6            1 RES     
   21050 H6        -275.3578   -76.6972   185.7781 H6            1 RES     
   21051 H6        -275.7467   -78.4436   185.9970 H6            1 RES     
   21052 H6        -274.2772   -78.5370   188.0014 H6            1 RES     
   21053 H6        -273.8986   -76.7713   187.8188 H6            1 RES     
   21054 H6        -273.3915   -77.9444   186.5496 H6            1 RES     
   21055 C0        -294.8509   -70.5931   180.1249 C0            1 RES     
   21056 C1        -295.6544   -71.6965   180.2004 C1            1 RES     
   21057 C1        -296.2210   -71.8650   181.4118 C1            1 RES     
   21058 C1        -295.8207   -70.9655   182.2550 C1            1 RES     
   21059 C1        -294.8582   -70.0536   181.6124 C1            1 RES     
   21060 C1        -293.6932   -70.4475   182.5078 C1            1 RES     
   21061 C1        -293.9937   -71.0915   183.6731 C1            1 RES     
   21062 S2        -295.7866   -71.1903   183.9990 S2            1 RES     
   21063 C1        -292.9448   -71.7211   184.5805 C1            1 RES     
   21064 C1        -291.5632   -71.3905   184.4559 C1            1 RES     
   21065 N3        -290.6138   -71.9679   185.2481 N3            1 RES     
   21066 C1        -290.9074   -72.8994   186.1827 C1            1 RES     
   21067 C1        -292.2306   -73.2894   186.3480 C1            1 RES     
   21068 C1        -293.2571   -72.6955   185.5521 C1            1 RES     
   21069 N3        -294.5111   -73.1691   185.7986 N3            1 RES     
   21070 S2        -294.2540   -74.2867   186.9941 S2            1 RES     
   21071 N3        -292.6218   -74.2317   187.2400 N3            1 RES     
   21072 S2        -297.1036   -73.2802   181.5513 S2            1 RES     
   21073 C1        -296.7693   -73.7295   179.9533 C1            1 RES     
   21074 C1        -295.9288   -72.7836   179.3537 C1            1 RES     
   21075 C0        -295.5048   -69.6206   179.0290 C0            1 RES     
   21076 C0        -296.8202   -69.3859   178.1294 C0            1 RES     
   21077 C0        -297.3134   -70.6084   177.2929 C0            1 RES     
   21078 C0        -298.7653   -70.9791   177.6498 C0            1 RES     
   21079 C0        -299.2595   -72.2866   177.0050 C0            1 RES     
   21080 C0        -300.7492   -72.4919   177.3403 C0            1 RES     
   21081 C0        -301.2767   -73.8661   176.9094 C0            1 RES     
   21082 C0        -302.7663   -73.9964   177.2355 C0            1 RES     
   21083 C0        -296.4367   -68.1781   177.1636 C0            1 RES     
   21084 C0        -297.3333   -67.5312   176.0616 C0            1 RES     
   21085 C0        -297.3816   -68.2302   174.6683 C0            1 RES     
   21086 C0        -297.6484   -67.2056   173.5229 C0            1 RES     
   21087 C0        -297.6021   -67.8276   172.1118 C0            1 RES     
   21088 C0        -297.3576   -66.8023   170.9740 C0            1 RES     
   21089 C0        -298.3938   -65.6745   170.8619 C0            1 RES     
   21090 C0        -298.0674   -64.7559   169.6765 C0            1 RES     
   21091 C0        -293.4144   -70.8952   179.4781 C0            1 RES     
   21092 C0        -292.2801   -69.8052   179.0182 C0            1 RES     
   21093 C0        -292.7875   -68.8165   177.8930 C0            1 RES     
   21094 C0        -291.7730   -67.9658   177.1356 C0            1 RES     
   21095 C0        -292.3374   -67.1594   175.9521 C0            1 RES     
   21096 C0        -293.1976   -65.9572   176.3937 C0            1 RES     
   21097 C0        -293.3157   -64.8898   175.2906 C0            1 RES     
   21098 C0        -294.0946   -65.3501   174.0706 C0            1 RES     
   21099 C0        -291.3663   -69.0928   180.1164 C0            1 RES     
   21100 C0        -289.9108   -68.8221   179.5757 C0            1 RES     
   21101 C0        -288.7408   -68.2953   180.4516 C0            1 RES     
   21102 C0        -288.5554   -66.7522   180.6258 C0            1 RES     
   21103 C0        -287.0293   -66.4459   180.7374 C0            1 RES     
   21104 C0        -286.6085   -64.9682   180.8906 C0            1 RES     
   21105 C0        -285.0724   -64.8568   180.7213 C0            1 RES     
   21106 C0        -284.5363   -63.4389   180.9135 C0            1 RES     
   21107 H4        -292.6908   -70.3106   182.1965 H4            1 RES     
   21108 H5        -291.2318   -70.6539   183.7423 H5            1 RES     
   21109 H4        -295.5297   -72.9181   178.3609 H4            1 RES     
   21110 H6        -295.3316   -68.6193   179.4783 H6            1 RES     
   21111 H6        -294.9236   -69.8119   178.1495 H6            1 RES     
   21112 H6        -297.6452   -69.0402   178.7905 H6            1 RES     
   21113 H6        -297.2580   -70.4172   176.2062 H6            1 RES     
   21114 H6        -296.6424   -71.4511   177.4118 H6            1 RES     
   21115 H6        -298.8464   -71.1052   178.7519 H6            1 RES     
   21116 H6        -299.4189   -70.1355   177.3355 H6            1 RES     
   21117 H6        -299.1345   -72.2611   175.9000 H6            1 RES     
   21118 H6        -298.6579   -73.1287   177.4131 H6            1 RES     
   21119 H6        -301.3380   -71.6920   176.8378 H6            1 RES     
   21120 H6        -300.8954   -72.4029   178.4390 H6            1 RES     
   21121 H6        -301.1323   -74.0155   175.8180 H6            1 RES     
   21122 H6        -300.7206   -74.6584   177.4571 H6            1 RES     
   21123 H6        -302.9434   -73.8429   178.3221 H6            1 RES     
   21124 H6        -303.3523   -73.2432   176.6660 H6            1 RES     
   21125 H6        -303.1292   -75.0089   176.9597 H6            1 RES     
   21126 H6        -296.2040   -67.3400   177.8567 H6            1 RES     
   21127 H6        -295.4903   -68.4216   176.6312 H6            1 RES     
   21128 H6        -298.3396   -67.2460   176.4288 H6            1 RES     
   21129 H6        -296.7922   -66.5789   175.8628 H6            1 RES     
   21130 H6        -296.3775   -68.6611   174.4539 H6            1 RES     
   21131 H6        -298.1297   -69.0487   174.6589 H6            1 RES     
   21132 H6        -298.6099   -66.6696   173.6689 H6            1 RES     
   21133 H6        -296.8401   -66.4598   173.5584 H6            1 RES     
   21134 H6        -296.7406   -68.5284   172.0546 H6            1 RES     
   21135 H6        -298.5305   -68.4104   171.9326 H6            1 RES     
   21136 H6        -297.3335   -67.3608   170.0121 H6            1 RES     
   21137 H6        -296.3551   -66.3409   171.1196 H6            1 RES     
   21138 H6        -298.3848   -65.0643   171.7897 H6            1 RES     
   21139 H6        -299.4072   -66.1021   170.7153 H6            1 RES     
   21140 H6        -298.0968   -65.3252   168.7222 H6            1 RES     
   21141 H6        -297.0575   -64.3055   169.7916 H6            1 RES     
   21142 H6        -298.8113   -63.9333   169.6154 H6            1 RES     
   21143 H6        -292.9056   -71.6260   180.1444 H6            1 RES     
   21144 H6        -293.6088   -71.4687   178.5430 H6            1 RES     
   21145 H6        -291.5687   -70.4909   178.5090 H6            1 RES     
   21146 H6        -293.5207   -68.1066   178.3203 H6            1 RES     
   21147 H6        -293.2295   -69.4465   177.0916 H6            1 RES     
   21148 H6        -291.3424   -67.2065   177.8120 H6            1 RES     
   21149 H6        -291.0000   -68.6550   176.7321 H6            1 RES     
   21150 H6        -291.4431   -66.7490   175.4371 H6            1 RES     
   21151 H6        -292.8782   -67.8102   175.2293 H6            1 RES     
   21152 H6        -292.6826   -65.4463   177.2346 H6            1 RES     
   21153 H6        -294.1945   -66.2862   176.7555 H6            1 RES     
   21154 H6        -292.2963   -64.5773   174.9757 H6            1 RES     
   21155 H6        -293.8315   -63.9987   175.7093 H6            1 RES     
   21156 H6        -294.1230   -64.5329   173.3180 H6            1 RES     
   21157 H6        -295.1226   -65.5704   174.3915 H6            1 RES     
   21158 H6        -293.6369   -66.2452   173.6019 H6            1 RES     
   21159 H6        -291.8661   -68.1970   180.5458 H6            1 RES     
   21160 H6        -291.1644   -69.8160   180.9231 H6            1 RES     
   21161 H6        -289.5708   -69.8273   179.2454 H6            1 RES     
   21162 H6        -289.8532   -68.2018   178.6876 H6            1 RES     
   21163 H6        -287.8721   -68.6011   179.8260 H6            1 RES     
   21164 H6        -288.6246   -68.8424   181.4100 H6            1 RES     
   21165 H6        -289.1337   -66.3821   181.5001 H6            1 RES     
   21166 H6        -288.9100   -66.2180   179.7174 H6            1 RES     
   21167 H6        -286.5692   -66.8028   179.7881 H6            1 RES     
   21168 H6        -286.5876   -67.0238   181.5775 H6            1 RES     
   21169 H6        -286.9164   -64.5951   181.8912 H6            1 RES     
   21170 H6        -287.0910   -64.3438   180.1076 H6            1 RES     
   21171 H6        -284.7970   -65.1887   179.6946 H6            1 RES     
   21172 H6        -284.5591   -65.5204   181.4504 H6            1 RES     
   21173 H6        -284.7264   -63.0896   181.9495 H6            1 RES     
   21174 H6        -285.0010   -62.7368   180.1904 H6            1 RES     
   21175 H6        -283.4361   -63.4374   180.7422 H6            1 RES     
   21176 C0        -297.2042   -81.9151   175.7587 C0            1 RES     
   21177 C1        -297.4051   -82.5546   176.9501 C1            1 RES     
   21178 C1        -298.4814   -82.1045   177.6252 C1            1 RES     
   21179 C1        -299.0502   -81.1148   177.0109 C1            1 RES     
   21180 C1        -298.3200   -80.7933   175.7723 C1            1 RES     
   21181 C1        -297.9095   -79.4002   176.2252 C1            1 RES     
   21182 C1        -298.5963   -78.8587   177.2731 C1            1 RES     
   21183 S2        -300.0125   -79.8775   177.8086 S2            1 RES     
   21184 C1        -298.1874   -77.5669   177.9687 C1            1 RES     
   21185 C1        -297.2675   -76.6598   177.3649 C1            1 RES     
   21186 N3        -296.8768   -75.5122   177.9914 N3            1 RES     
   21187 C1        -297.3114   -75.1662   179.2239 C1            1 RES     
   21188 C1        -298.1934   -76.0114   179.8854 C1            1 RES     
   21189 C1        -298.6419   -77.2128   179.2567 C1            1 RES     
   21190 N3        -299.4947   -77.9629   180.0102 N3            1 RES     
   21191 S2        -299.6357   -77.0740   181.4011 S2            1 RES     
   21192 N3        -298.6661   -75.7645   181.1314 N3            1 RES     
   21193 S2        -298.6618   -82.7922   179.1404 S2            1 RES     
   21194 C1        -297.2830   -83.7556   178.9451 C1            1 RES     
   21195 C1        -296.6769   -83.4834   177.7125 C1            1 RES     
   21196 C0        -297.3479   -83.0253   174.6093 C0            1 RES     
   21197 C0        -297.8023   -84.5452   174.3296 C0            1 RES     
   21198 C0        -297.1833   -85.6348   175.2608 C0            1 RES     
   21199 C0        -298.2800   -86.4301   175.9941 C0            1 RES     
   21200 C0        -297.7480   -87.3945   177.0695 C0            1 RES     
   21201 C0        -298.9188   -88.2105   177.6501 C0            1 RES     
   21202 C0        -298.5165   -89.0540   178.8663 C0            1 RES     
   21203 C0        -299.7093   -89.8671   179.3747 C0            1 RES     
   21204 C0        -297.3877   -84.8167   172.8153 C0            1 RES     
   21205 C0        -297.5772   -86.1397   172.0088 C0            1 RES     
   21206 C0        -296.4991   -87.2529   172.1847 C0            1 RES     
   21207 C0        -296.3613   -88.1244   170.8985 C0            1 RES     
   21208 C0        -295.2347   -89.1753   170.9798 C0            1 RES     
   21209 C0        -294.7444   -89.6881   169.6006 C0            1 RES     
   21210 C0        -295.8157   -90.3424   168.7159 C0            1 RES     
   21211 C0        -295.1997   -90.8460   167.4035 C0            1 RES     
   21212 C0        -295.6925   -81.4212   175.5487 C0            1 RES     
   21213 C0        -295.0199   -80.8286   174.1766 C0            1 RES     
   21214 C0        -295.0493   -81.8564   172.9751 C0            1 RES     
   21215 C0        -294.1899   -81.5884   171.7438 C0            1 RES     
   21216 C0        -294.1561   -82.7200   170.7008 C0            1 RES     
   21217 C0        -295.4712   -82.8491   169.9045 C0            1 RES     
   21218 C0        -295.2712   -83.5824   168.5658 C0            1 RES     
   21219 C0        -294.8979   -85.0470   168.7168 C0            1 RES     
   21220 C0        -295.3172   -79.3260   173.7266 C0            1 RES     
   21221 C0        -294.0685   -78.6717   173.0218 C0            1 RES     
   21222 C0        -293.9821   -77.1737   172.6191 C0            1 RES     
   21223 C0        -294.5283   -76.7282   171.2230 C0            1 RES     
   21224 C0        -293.6433   -75.5562   170.6956 C0            1 RES     
   21225 C0        -293.9880   -74.9712   169.3088 C0            1 RES     
   21226 C0        -292.8518   -74.0167   168.8629 C0            1 RES     
   21227 C0        -293.1179   -73.3318   167.5232 C0            1 RES     
   21228 H4        -297.0688   -78.9123   175.8063 H4            1 RES     
   21229 H5        -296.8701   -76.8467   176.3806 H5            1 RES     
   21230 H4        -295.7399   -83.9316   177.4224 H4            1 RES     
   21231 H6        -297.8716   -82.4603   173.8087 H6            1 RES     
   21232 H6        -296.3322   -83.2741   174.3765 H6            1 RES     
   21233 H6        -298.9114   -84.6010   174.3907 H6            1 RES     
   21234 H6        -296.5490   -86.3464   174.7025 H6            1 RES     
   21235 H6        -296.4766   -85.1922   175.9531 H6            1 RES     
   21236 H6        -298.9657   -85.7170   176.5026 H6            1 RES     
   21237 H6        -298.8552   -86.9997   175.2310 H6            1 RES     
   21238 H6        -296.9927   -88.0918   176.6446 H6            1 RES     
   21239 H6        -297.2673   -86.7938   177.8731 H6            1 RES     
   21240 H6        -299.3172   -88.8749   176.8508 H6            1 RES     
   21241 H6        -299.7272   -87.5179   177.9714 H6            1 RES     
   21242 H6        -297.6915   -89.7501   178.6036 H6            1 RES     
   21243 H6        -298.1715   -88.3791   179.6803 H6            1 RES     
   21244 H6        -300.5557   -89.1964   179.6381 H6            1 RES     
   21245 H6        -300.0474   -90.5830   178.5949 H6            1 RES     
   21246 H6        -299.4204   -90.4410   180.2802 H6            1 RES     
   21247 H6        -297.9589   -84.0574   172.2374 H6            1 RES     
   21248 H6        -296.3102   -84.5725   172.6815 H6            1 RES     
   21249 H6        -298.6107   -86.5377   172.0588 H6            1 RES     
   21250 H6        -297.4284   -85.7881   170.9631 H6            1 RES     
   21251 H6        -295.5071   -86.7660   172.3217 H6            1 RES     
   21252 H6        -296.7143   -87.8790   173.0743 H6            1 RES     
   21253 H6        -297.3203   -88.6175   170.6334 H6            1 RES     
   21254 H6        -296.0932   -87.4473   170.0736 H6            1 RES     
   21255 H6        -294.3392   -88.7087   171.4457 H6            1 RES     
   21256 H6        -295.5586   -90.0172   171.6277 H6            1 RES     
   21257 H6        -293.9320   -90.4265   169.7813 H6            1 RES     
   21258 H6        -294.3032   -88.8341   169.0392 H6            1 RES     
   21259 H6        -296.6031   -89.5991   168.4698 H6            1 RES     
   21260 H6        -296.2763   -91.2005   169.2478 H6            1 RES     
   21261 H6        -294.4253   -91.6172   167.6066 H6            1 RES     
   21262 H6        -294.7306   -90.0099   166.8404 H6            1 RES     
   21263 H6        -295.9854   -91.3003   166.7631 H6            1 RES     
   21264 H6        -295.4760   -80.6869   176.3553 H6            1 RES     
   21265 H6        -295.0437   -82.2933   175.7929 H6            1 RES     
   21266 H6        -293.9578   -80.7857   174.5017 H6            1 RES     
   21267 H6        -296.0854   -81.9698   172.6037 H6            1 RES     
   21268 H6        -294.6346   -82.8114   173.3632 H6            1 RES     
   21269 H6        -294.5835   -80.7142   171.1960 H6            1 RES     
   21270 H6        -293.1481   -81.4281   172.0969 H6            1 RES     
   21271 H6        -293.3668   -82.4176   169.9805 H6            1 RES     
   21272 H6        -293.8510   -83.6898   171.1533 H6            1 RES     
   21273 H6        -295.8151   -81.8305   169.6261 H6            1 RES     
   21274 H6        -296.2683   -83.3213   170.5166 H6            1 RES     
   21275 H6        -294.4811   -83.0634   167.9807 H6            1 RES     
   21276 H6        -296.2168   -83.5289   167.9841 H6            1 RES     
   21277 H6        -294.7578   -85.5001   167.7118 H6            1 RES     
   21278 H6        -295.7318   -85.5562   169.2205 H6            1 RES     
   21279 H6        -293.9607   -85.1767   169.2957 H6            1 RES     
   21280 H6        -296.2600   -79.2532   173.1414 H6            1 RES     
   21281 H6        -295.4039   -78.7027   174.6313 H6            1 RES     
   21282 H6        -293.2578   -78.7980   173.7714 H6            1 RES     
   21283 H6        -293.7126   -79.1866   172.1358 H6            1 RES     
   21284 H6        -292.8788   -77.0575   172.5252 H6            1 RES     
   21285 H6        -294.2866   -76.4795   173.4294 H6            1 RES     
   21286 H6        -295.6048   -76.4587   171.2888 H6            1 RES     
   21287 H6        -294.4163   -77.5531   170.4859 H6            1 RES     
   21288 H6        -292.6082   -75.9591   170.6138 H6            1 RES     
   21289 H6        -293.6364   -74.7252   171.4333 H6            1 RES     
   21290 H6        -294.9541   -74.4245   169.3649 H6            1 RES     
   21291 H6        -294.0754   -75.7838   168.5553 H6            1 RES     
   21292 H6        -291.9078   -74.5991   168.7660 H6            1 RES     
   21293 H6        -292.6954   -73.2261   169.6283 H6            1 RES     
   21294 H6        -294.0146   -72.6816   167.5913 H6            1 RES     
   21295 H6        -293.2582   -74.0797   166.7153 H6            1 RES     
   21296 H6        -292.2447   -72.6935   167.2587 H6            1 RES     
   21297 C0        -291.9974   -88.0688   185.1294 C0            1 RES     
   21298 C1        -292.6322   -87.4393   186.1636 C1            1 RES     
   21299 C1        -293.9641   -87.6457   186.1800 C1            1 RES     
   21300 C1        -294.3500   -88.3520   185.1639 C1            1 RES     
   21301 C1        -293.1991   -88.6894   184.3081 C1            1 RES     
   21302 C1        -293.7035   -87.9087   183.1038 C1            1 RES     
   21303 C1        -295.0255   -87.5691   183.0913 C1            1 RES     
   21304 S2        -295.9676   -88.2937   184.4761 S2            1 RES     
   21305 C1        -295.6425   -86.6294   182.0636 C1            1 RES     
   21306 C1        -294.9640   -86.3102   180.8506 C1            1 RES     
   21307 N3        -295.4982   -85.4503   179.9354 N3            1 RES     
   21308 C1        -296.6849   -84.8295   180.1193 C1            1 RES     
   21309 C1        -297.3951   -85.0737   181.2881 C1            1 RES     
   21310 C1        -296.8802   -85.9817   182.2628 C1            1 RES     
   21311 N3        -297.6613   -86.1282   183.3700 N3            1 RES     
   21312 S2        -298.9402   -85.1238   183.0536 S2            1 RES     
   21313 N3        -298.5802   -84.4820   181.5750 N3            1 RES     
   21314 S2        -294.7654   -86.7775   187.3656 S2            1 RES     
   21315 C1        -293.3269   -86.0849   187.9299 C1            1 RES     
   21316 C1        -292.2483   -86.5098   187.1447 C1            1 RES     
   21317 C0        -290.9839   -89.1258   185.7852 C0            1 RES     
   21318 C0        -290.5695   -89.8293   187.1737 C0            1 RES     
   21319 C0        -290.3060   -88.8751   188.3811 C0            1 RES     
   21320 C0        -291.2286   -89.2102   189.5684 C0            1 RES     
   21321 C0        -291.1604   -88.1977   190.7259 C0            1 RES     
   21322 C0        -292.0335   -88.6953   191.8936 C0            1 RES     
   21323 C0        -292.1869   -87.6570   193.0122 C0            1 RES     
   21324 C0        -293.0322   -88.2208   194.1567 C0            1 RES     
   21325 C0        -289.2514   -90.6552   186.8285 C0            1 RES     
   21326 C0        -288.4017   -91.5263   187.8062 C0            1 RES     
   21327 C0        -287.3457   -90.7958   188.6914 C0            1 RES     
   21328 C0        -286.1396   -91.7257   189.0283 C0            1 RES     
   21329 C0        -285.0146   -91.0213   189.8147 C0            1 RES     
   21330 C0        -283.6376   -91.7290   189.7239 C0            1 RES     
   21331 C0        -283.6026   -93.1810   190.2227 C0            1 RES     
   21332 C0        -282.1820   -93.7532   190.1228 C0            1 RES     
   21333 C0        -290.9944   -87.1122   184.3218 C0            1 RES     
   21334 C0        -289.9019   -87.5504   183.1813 C0            1 RES     
   21335 C0        -288.8070   -88.5552   183.7222 C0            1 RES     
   21336 C0        -287.5505   -88.8047   182.8943 C0            1 RES     
   21337 C0        -286.4703   -89.6659   183.5733 C0            1 RES     
   21338 C0        -286.8536   -91.1576   183.6639 C0            1 RES     
   21339 C0        -285.6228   -92.0646   183.8439 C0            1 RES     
   21340 C0        -284.9144   -91.8828   185.1752 C0            1 RES     
   21341 C0        -290.3879   -87.8879   181.6986 C0            1 RES     
   21342 C0        -289.3246   -87.4452   180.6228 C0            1 RES     
   21343 C0        -289.5697   -87.4846   179.0892 C0            1 RES     
   21344 C0        -289.2599   -88.8002   178.3024 C0            1 RES     
   21345 C0        -288.7503   -88.4176   176.8780 C0            1 RES     
   21346 C0        -288.3569   -89.5699   175.9285 C0            1 RES     
   21347 C0        -287.6416   -88.9831   174.6857 C0            1 RES     
   21348 C0        -287.2588   -90.0350   173.6457 C0            1 RES     
   21349 H4        -293.0392   -87.5651   182.3549 H4            1 RES     
   21350 H5        -294.0141   -86.7601   180.6120 H5            1 RES     
   21351 H4        -291.2504   -86.1253   187.2841 H4            1 RES     
   21352 H6        -291.0674   -89.9868   185.0881 H6            1 RES     
   21353 H6        -290.0397   -88.6211   185.7461 H6            1 RES     
   21354 H6        -291.3614   -90.5589   187.4521 H6            1 RES     
   21355 H6        -289.2581   -88.9237   188.7276 H6            1 RES     
   21356 H6        -290.3997   -87.8385   188.0792 H6            1 RES     
   21357 H6        -292.2824   -89.2324   189.2130 H6            1 RES     
   21358 H6        -290.9527   -90.2223   189.9386 H6            1 RES     
   21359 H6        -290.1150   -88.0659   191.0824 H6            1 RES     
   21360 H6        -291.5385   -87.2181   190.3584 H6            1 RES     
   21361 H6        -291.5770   -89.6229   192.3060 H6            1 RES     
   21362 H6        -293.0507   -88.9382   191.5159 H6            1 RES     
   21363 H6        -291.1926   -87.3615   193.4101 H6            1 RES     
   21364 H6        -292.6936   -86.7545   192.6051 H6            1 RES     
   21365 H6        -294.0324   -88.5339   193.7863 H6            1 RES     
   21366 H6        -292.5265   -89.0995   194.6119 H6            1 RES     
   21367 H6        -293.1737   -87.4484   194.9416 H6            1 RES     
   21368 H6        -289.5764   -91.3662   186.0374 H6            1 RES     
   21369 H6        -288.5066   -89.9756   186.3576 H6            1 RES     
   21370 H6        -289.0077   -92.2545   188.3819 H6            1 RES     
   21371 H6        -287.7864   -92.1241   187.0968 H6            1 RES     
   21372 H6        -286.9160   -89.9520   188.1055 H6            1 RES     
   21373 H6        -287.8105   -90.3894   189.6126 H6            1 RES     
   21374 H6        -286.4654   -92.6388   189.5698 H6            1 RES     
   21375 H6        -285.6963   -92.0431   188.0725 H6            1 RES     
   21376 H6        -284.8465   -90.0124   189.3781 H6            1 RES     
   21377 H6        -285.3277   -90.8892   190.8721 H6            1 RES     
   21378 H6        -282.9084   -91.1317   190.3149 H6            1 RES     
   21379 H6        -283.3001   -91.7170   188.6632 H6            1 RES     
   21380 H6        -284.2761   -93.8071   189.6001 H6            1 RES     
   21381 H6        -283.9341   -93.2280   191.2807 H6            1 RES     
   21382 H6        -281.4810   -93.1703   190.7588 H6            1 RES     
   21383 H6        -281.8174   -93.7254   189.0729 H6            1 RES     
   21384 H6        -282.1710   -94.8089   190.4680 H6            1 RES     
   21385 H6        -291.6083   -86.2962   183.8813 H6            1 RES     
   21386 H6        -290.3692   -86.5994   185.0881 H6            1 RES     
   21387 H6        -289.3748   -86.5798   183.0559 H6            1 RES     
   21388 H6        -289.2615   -89.5495   183.8920 H6            1 RES     
   21389 H6        -288.4029   -88.1120   184.6576 H6            1 RES     
   21390 H6        -287.8121   -89.3571   181.9747 H6            1 RES     
   21391 H6        -287.0981   -87.8136   182.6740 H6            1 RES     
   21392 H6        -285.5887   -89.5957   182.9015 H6            1 RES     
   21393 H6        -286.1769   -89.2544   184.5647 H6            1 RES     
   21394 H6        -287.2988   -91.4658   182.6943 H6            1 RES     
   21395 H6        -287.6116   -91.3315   184.4564 H6            1 RES     
   21396 H6        -284.9035   -91.8704   183.0188 H6            1 RES     
   21397 H6        -285.9468   -93.1254   183.7711 H6            1 RES     
   21398 H6        -284.0334   -92.5584   185.2225 H6            1 RES     
   21399 H6        -285.6182   -92.1639   185.9715 H6            1 RES     
   21400 H6        -284.5666   -90.8394   185.3187 H6            1 RES     
   21401 H6        -290.7148   -88.9468   181.6064 H6            1 RES     
   21402 H6        -291.2329   -87.2255   181.4503 H6            1 RES     
   21403 H6        -289.1710   -86.3672   180.8451 H6            1 RES     
   21404 H6        -288.3429   -87.8948   180.7276 H6            1 RES     
   21405 H6        -288.7841   -86.7748   178.7450 H6            1 RES     
   21406 H6        -290.5352   -87.0309   178.7837 H6            1 RES     
   21407 H6        -290.1519   -89.4632   178.2767 H6            1 RES     
   21408 H6        -288.4257   -89.3511   178.7891 H6            1 RES     
   21409 H6        -287.8284   -87.8113   177.0288 H6            1 RES     
   21410 H6        -289.5042   -87.7833   176.3638 H6            1 RES     
   21411 H6        -289.2679   -90.1289   175.6237 H6            1 RES     
   21412 H6        -287.6565   -90.2688   176.4353 H6            1 RES     
   21413 H6        -286.7077   -88.4729   175.0136 H6            1 RES     
   21414 H6        -288.2930   -88.2309   174.1904 H6            1 RES     
   21415 H6        -288.1669   -90.5244   173.2367 H6            1 RES     
   21416 H6        -286.5859   -90.8010   174.0842 H6            1 RES     
   21417 H6        -286.7219   -89.5402   172.8051 H6            1 RES     
   21418 C0        -291.8338   -78.5702   193.0375 C0            1 RES     
   21419 C1        -293.1434   -78.1934   192.9296 C1            1 RES     
   21420 C1        -294.0081   -79.1276   193.3728 C1            1 RES     
   21421 C1        -293.3944   -80.2063   193.7472 C1            1 RES     
   21422 C1        -291.9412   -80.0629   193.5512 C1            1 RES     
   21423 C1        -291.8434   -81.1712   192.5136 C1            1 RES     
   21424 C1        -292.8847   -82.0507   192.4421 C1            1 RES     
   21425 S2        -294.1247   -81.8062   193.7586 S2            1 RES     
   21426 C1        -293.0325   -83.0910   191.3395 C1            1 RES     
   21427 C1        -291.9325   -83.4461   190.5042 C1            1 RES     
   21428 N3        -292.0619   -84.3591   189.4983 N3            1 RES     
   21429 C1        -293.2328   -84.9701   189.2099 C1            1 RES     
   21430 C1        -294.3555   -84.6590   189.9668 C1            1 RES     
   21431 C1        -294.2582   -83.7229   191.0411 C1            1 RES     
   21432 N3        -295.4288   -83.4925   191.7001 N3            1 RES     
   21433 S2        -296.4988   -84.4754   190.9043 S2            1 RES     
   21434 N3        -295.5776   -85.1992   189.7401 N3            1 RES     
   21435 S2        -295.6148   -78.7280   193.1278 S2            1 RES     
   21436 C1        -295.2110   -77.2458   192.4158 C1            1 RES     
   21437 C1        -293.8192   -77.1130   192.3380 C1            1 RES     
   21438 C0        -291.1378   -77.5355   194.0472 C0            1 RES     
   21439 C0        -291.4399   -76.3486   195.0935 C0            1 RES     
   21440 C0        -292.3477   -75.1873   194.5790 C0            1 RES     
   21441 C0        -293.5966   -75.0211   195.4654 C0            1 RES     
   21442 C0        -294.6318   -74.0229   194.9164 C0            1 RES     
   21443 C0        -295.7743   -73.8568   195.9366 C0            1 RES     
   21444 C0        -296.9499   -73.0361   195.3917 C0            1 RES     
   21445 C0        -298.0342   -72.8756   196.4598 C0            1 RES     
   21446 C0        -290.0027   -75.7875   195.4912 C0            1 RES     
   21447 C0        -289.6870   -74.6134   196.4703 C0            1 RES     
   21448 C0        -289.7611   -73.1620   195.9043 C0            1 RES     
   21449 C0        -288.7819   -72.2056   196.6521 C0            1 RES     
   21450 C0        -288.7376   -70.7801   196.0634 C0            1 RES     
   21451 C0        -287.4586   -69.9823   196.4284 C0            1 RES     
   21452 C0        -287.2046   -69.7849   197.9300 C0            1 RES     
   21453 C0        -285.9397   -68.9463   198.1589 C0            1 RES     
   21454 C0        -290.9906   -78.3326   191.6937 C0            1 RES     
   21455 C0        -289.3665   -78.4449   191.5040 C0            1 RES     
   21456 C0        -288.5625   -77.4293   192.4111 C0            1 RES     
   21457 C0        -287.0849   -77.1822   192.1241 C0            1 RES     
   21458 C0        -286.4287   -76.0605   192.9491 C0            1 RES     
   21459 C0        -286.2021   -76.4476   194.4253 C0            1 RES     
   21460 C0        -285.1179   -75.5829   195.0936 C0            1 RES     
   21461 C0        -285.5060   -74.1228   195.2502 C0            1 RES     
   21462 C0        -288.6728   -79.8788   191.3976 C0            1 RES     
   21463 C0        -287.4336   -79.8549   190.4241 C0            1 RES     
   21464 C0        -286.6503   -81.1213   189.9809 C0            1 RES     
   21465 C0        -285.4664   -81.6324   190.8658 C0            1 RES     
   21466 C0        -284.3783   -82.2468   189.9311 C0            1 RES     
   21467 C0        -283.0965   -82.7956   190.5944 C0            1 RES     
   21468 C0        -282.0512   -83.1130   189.4956 C0            1 RES     
   21469 C0        -280.7584   -83.7210   190.0374 C0            1 RES     
   21470 H4        -291.0468   -81.2025   191.8174 H4            1 RES     
   21471 H5        -290.9566   -83.0162   190.6605 H5            1 RES     
   21472 H4        -293.3492   -76.2762   191.8462 H4            1 RES     
   21473 H6        -290.4513   -78.1976   194.6172 H6            1 RES     
   21474 H6        -290.6401   -76.8479   193.3936 H6            1 RES     
   21475 H6        -291.8949   -76.7889   196.0080 H6            1 RES     
   21476 H6        -291.8099   -74.2228   194.5477 H6            1 RES     
   21477 H6        -292.6104   -75.3371   193.5383 H6            1 RES     
   21478 H6        -294.1070   -76.0049   195.5599 H6            1 RES     
   21479 H6        -293.2576   -74.6937   196.4730 H6            1 RES     
   21480 H6        -294.1685   -73.0303   194.7228 H6            1 RES     
   21481 H6        -295.0320   -74.4230   193.9586 H6            1 RES     
   21482 H6        -295.3659   -73.3640   196.8474 H6            1 RES     
   21483 H6        -296.1640   -74.8588   196.2200 H6            1 RES     
   21484 H6        -296.6080   -72.0288   195.0710 H6            1 RES     
   21485 H6        -297.3872   -73.5629   194.5152 H6            1 RES     
   21486 H6        -298.3907   -73.8696   196.8071 H6            1 RES     
   21487 H6        -297.6359   -72.3122   197.3309 H6            1 RES     
   21488 H6        -298.8991   -72.3177   196.0433 H6            1 RES     
   21489 H6        -289.4827   -76.6644   195.9357 H6            1 RES     
   21490 H6        -289.4442   -75.5231   194.5657 H6            1 RES     
   21491 H6        -290.1948   -74.7134   197.4506 H6            1 RES     
   21492 H6        -288.6018   -74.7685   196.6637 H6            1 RES     
   21493 H6        -289.4128   -73.1767   194.8468 H6            1 RES     
   21494 H6        -290.8004   -72.7763   195.9317 H6            1 RES     
   21495 H6        -289.0048   -72.1594   197.7389 H6            1 RES     
   21496 H6        -287.7692   -72.6198   196.5349 H6            1 RES     
   21497 H6        -288.7245   -70.8485   194.9536 H6            1 RES     
   21498 H6        -289.6532   -70.2268   196.3619 H6            1 RES     
   21499 H6        -287.5316   -68.9828   195.9451 H6            1 RES     
   21500 H6        -286.5770   -70.5029   195.9916 H6            1 RES     
   21501 H6        -287.0627   -70.7719   198.4187 H6            1 RES     
   21502 H6        -288.0674   -69.2663   198.3970 H6            1 RES     
   21503 H6        -286.0546   -67.9361   197.7095 H6            1 RES     
   21504 H6        -285.0516   -69.4386   197.7062 H6            1 RES     
   21505 H6        -285.7543   -68.8252   199.2474 H6            1 RES     
   21506 H6        -291.4505   -78.9681   190.9054 H6            1 RES     
   21507 H6        -291.2125   -77.2907   191.3676 H6            1 RES     
   21508 H6        -289.2792   -78.0486   190.4691 H6            1 RES     
   21509 H6        -288.6174   -77.7470   193.4695 H6            1 RES     
   21510 H6        -289.0169   -76.4286   192.2481 H6            1 RES     
   21511 H6        -286.5004   -78.0871   192.3668 H6            1 RES     
   21512 H6        -286.9992   -76.9023   191.0518 H6            1 RES     
   21513 H6        -285.4268   -75.9211   192.4907 H6            1 RES     
   21514 H6        -286.9831   -75.1002   192.8550 H6            1 RES     
   21515 H6        -285.8052   -77.4843   194.4599 H6            1 RES     
   21516 H6        -287.1534   -76.4287   194.9975 H6            1 RES     
   21517 H6        -284.1811   -75.6492   194.4987 H6            1 RES     
   21518 H6        -284.9086   -75.9914   196.1059 H6            1 RES     
   21519 H6        -284.6703   -73.5651   195.7251 H6            1 RES     
   21520 H6        -286.3822   -74.0770   195.9125 H6            1 RES     
   21521 H6        -285.7357   -73.6494   194.2737 H6            1 RES     
   21522 H6        -288.4542   -80.3030   192.4020 H6            1 RES     
   21523 H6        -289.3553   -80.5563   190.8594 H6            1 RES     
   21524 H6        -287.8600   -79.4554   189.4787 H6            1 RES     
   21525 H6        -286.6461   -79.1585   190.6917 H6            1 RES     
   21526 H6        -286.1521   -80.7347   189.0634 H6            1 RES     
   21527 H6        -287.3050   -81.9489   189.6379 H6            1 RES     
   21528 H6        -285.8295   -82.3500   191.6334 H6            1 RES     
   21529 H6        -284.9786   -80.7786   191.3848 H6            1 RES     
   21530 H6        -284.0501   -81.4266   189.2531 H6            1 RES     
   21531 H6        -284.8238   -83.0542   189.3110 H6            1 RES     
   21532 H6        -283.3401   -83.7120   191.1741 H6            1 RES     
   21533 H6        -282.6600   -82.0384   191.2815 H6            1 RES     
   21534 H6        -281.7878   -82.1704   188.9645 H6            1 RES     
   21535 H6        -282.4801   -83.8213   188.7543 H6            1 RES     
   21536 H6        -280.9618   -84.7008   190.5169 H6            1 RES     
   21537 H6        -280.2744   -83.0399   190.7680 H6            1 RES     
   21538 H6        -280.0504   -83.8867   189.1942 H6            1 RES     
   21539 C0        -300.0694   -71.6354   186.9654 C0            1 RES     
   21540 C1        -301.0574   -72.5696   186.8247 C1            1 RES     
   21541 C1        -301.5887   -72.9685   187.9974 C1            1 RES     
   21542 C1        -300.9917   -72.4131   189.0052 C1            1 RES     
   21543 C1        -299.9089   -71.5308   188.5360 C1            1 RES     
   21544 C1        -298.7959   -72.3410   189.1835 C1            1 RES     
   21545 C1        -299.1554   -73.2215   190.1625 C1            1 RES     
   21546 S2        -300.9190   -73.1100   190.6183 S2            1 RES     
   21547 C1        -298.1991   -74.2391   190.7707 C1            1 RES     
   21548 C1        -296.7876   -74.1186   190.6076 C1            1 RES     
   21549 N3        -295.9247   -75.0387   191.1281 N3            1 RES     
   21550 C1        -296.3409   -76.1295   191.8097 C1            1 RES     
   21551 C1        -297.7041   -76.3271   191.9908 C1            1 RES     
   21552 C1        -298.6398   -75.3776   191.4783 C1            1 RES     
   21553 N3        -299.9467   -75.6880   191.7091 N3            1 RES     
   21554 S2        -299.8442   -77.1171   192.5407 S2            1 RES     
   21555 N3        -298.2199   -77.4004   192.6378 N3            1 RES     
   21556 S2        -302.7087   -74.2028   187.8441 S2            1 RES     
   21557 C1        -302.5366   -74.2451   186.1601 C1            1 RES     
   21558 C1        -301.5653   -73.3224   185.7527 C1            1 RES     
   21559 C0        -300.5835   -70.3059   186.2287 C0            1 RES     
   21560 C0        -301.8736   -69.6208   185.5498 C0            1 RES     
   21561 C0        -302.6208   -70.4687   184.4726 C0            1 RES     
   21562 C0        -304.0981   -70.6794   184.8550 C0            1 RES     
   21563 C0        -304.8531   -71.6604   183.9400 C0            1 RES     
   21564 C0        -306.3380   -71.7023   184.3484 C0            1 RES     
   21565 C0        -307.1281   -72.7996   183.6245 C0            1 RES     
   21566 C0        -308.5997   -72.7679   184.0437 C0            1 RES     
   21567 C0        -301.3200   -68.2744   184.9021 C0            1 RES     
   21568 C0        -302.1325   -67.2120   184.0972 C0            1 RES     
   21569 C0        -302.3725   -67.4843   182.5804 C0            1 RES     
   21570 C0        -302.4993   -66.1555   181.7735 C0            1 RES     
   21571 C0        -302.6331   -66.3655   180.2509 C0            1 RES     
   21572 C0        -302.2573   -65.1221   179.4034 C0            1 RES     
   21573 C0        -303.0730   -63.8526   179.6884 C0            1 RES     
   21574 C0        -302.6386   -62.7107   178.7594 C0            1 RES     
   21575 C0        -298.7441   -71.9801   186.1299 C0            1 RES     
   21576 C0        -297.4515   -71.0073   185.8667 C0            1 RES     
   21577 C0        -297.8202   -69.6787   185.0924 C0            1 RES     
   21578 C0        -296.7029   -68.8314   184.4921 C0            1 RES     
   21579 C0        -297.1637   -67.6500   183.6194 C0            1 RES     
   21580 C0        -297.7674   -66.4908   184.4392 C0            1 RES     
   21581 C0        -297.7383   -65.1575   183.6701 C0            1 RES     
   21582 C0        -298.6439   -65.1311   182.4509 C0            1 RES     
   21583 C0        -296.3728   -70.7836   187.0221 C0            1 RES     
   21584 C0        -294.9189   -70.6178   186.4367 C0            1 RES     
   21585 C0        -293.6329   -70.5510   187.3059 C0            1 RES     
   21586 C0        -293.1596   -69.1671   187.8596 C0            1 RES     
   21587 C0        -291.5998   -69.1580   187.9034 C0            1 RES     
   21588 C0        -290.9083   -67.8690   188.3978 C0            1 RES     
   21589 C0        -289.3873   -67.9692   188.1198 C0            1 RES     
   21590 C0        -288.5918   -66.7665   188.6251 C0            1 RES     
   21591 H4        -297.8009   -72.2904   188.8260 H4            1 RES     
   21592 H5        -296.3599   -73.2793   190.0837 H5            1 RES     
   21593 H4        -301.2440   -73.2431   184.7263 H4            1 RES     
   21594 H6        -300.2090   -69.5088   186.9060 H6            1 RES     
   21595 H6        -300.0886   -70.3414   185.2792 H6            1 RES     
   21596 H6        -302.5897   -69.3391   186.3528 H6            1 RES     
   21597 H6        -302.5815   -69.9986   183.4737 H6            1 RES     
   21598 H6        -302.1112   -71.4101   184.3032 H6            1 RES     
   21599 H6        -304.1500   -71.0879   185.8883 H6            1 RES     
   21600 H6        -304.5996   -69.6866   184.8354 H6            1 RES     
   21601 H6        -304.7766   -71.3538   182.8735 H6            1 RES     
   21602 H6        -304.3981   -72.6690   184.0550 H6            1 RES     
   21603 H6        -306.7927   -70.7098   184.1304 H6            1 RES     
   21604 H6        -306.4145   -71.8952   185.4408 H6            1 RES     
   21605 H6        -307.0641   -72.6655   182.5234 H6            1 RES     
   21606 H6        -306.7022   -73.7918   183.8909 H6            1 RES     
   21607 H6        -308.6952   -72.8914   185.1443 H6            1 RES     
   21608 H6        -309.0631   -71.8018   183.7489 H6            1 RES     
   21609 H6        -309.1545   -73.5920   183.5479 H6            1 RES     
   21610 H6        -300.9057   -67.7086   185.7653 H6            1 RES     
   21611 H6        -300.4599   -68.5145   184.2380 H6            1 RES     
   21612 H6        -303.0514   -66.8772   184.6192 H6            1 RES     
   21613 H6        -301.4355   -66.3440   184.1046 H6            1 RES     
   21614 H6        -301.4755   -67.9987   182.1673 H6            1 RES     
   21615 H6        -303.2577   -68.1344   182.4276 H6            1 RES     
   21616 H6        -303.3383   -65.5298   182.1444 H6            1 RES     
   21617 H6        -301.5671   -65.5913   181.9268 H6            1 RES     
   21618 H6        -301.9184   -67.1553   179.9316 H6            1 RES     
   21619 H6        -303.6599   -66.7161   180.0136 H6            1 RES     
   21620 H6        -302.3806   -65.3915   178.3310 H6            1 RES     
   21621 H6        -301.1815   -64.8894   179.5697 H6            1 RES     
   21622 H6        -302.9094   -63.5303   180.7384 H6            1 RES     
   21623 H6        -304.1534   -64.0511   179.5309 H6            1 RES     
   21624 H6        -302.8160   -62.9835   177.6965 H6            1 RES     
   21625 H6        -301.5590   -62.4813   178.8929 H6            1 RES     
   21626 H6        -303.2210   -61.7923   178.9860 H6            1 RES     
   21627 H6        -298.3479   -72.9387   186.5308 H6            1 RES     
   21628 H6        -299.0834   -72.2351   185.0999 H6            1 RES     
   21629 H6        -296.9023   -71.6343   185.1312 H6            1 RES     
   21630 H6        -298.3902   -69.0027   185.7576 H6            1 RES     
   21631 H6        -298.4068   -69.9832   184.1993 H6            1 RES     
   21632 H6        -296.1095   -68.3682   185.3000 H6            1 RES     
   21633 H6        -296.0889   -69.5007   183.8514 H6            1 RES     
   21634 H6        -296.2340   -67.2668   183.1480 H6            1 RES     
   21635 H6        -297.8475   -67.9797   182.8057 H6            1 RES     
   21636 H6        -297.1290   -66.3219   185.3321 H6            1 RES     
   21637 H6        -298.7899   -66.7381   184.7944 H6            1 RES     
   21638 H6        -296.6946   -64.9423   183.3535 H6            1 RES     
   21639 H6        -298.0619   -64.3433   184.3540 H6            1 RES     
   21640 H6        -298.5566   -64.1458   181.9446 H6            1 RES     
   21641 H6        -299.6790   -65.2591   182.7983 H6            1 RES     
   21642 H6        -298.3804   -65.9259   181.7234 H6            1 RES     
   21643 H6        -296.6793   -69.9705   187.7160 H6            1 RES     
   21644 H6        -296.2700   -71.7232   187.5887 H6            1 RES     
   21645 H6        -294.7847   -71.5355   185.8244 H6            1 RES     
   21646 H6        -294.7894   -69.7959   185.7405 H6            1 RES     
   21647 H6        -292.8649   -70.8118   186.5432 H6            1 RES     
   21648 H6        -293.5750   -71.3513   188.0723 H6            1 RES     
   21649 H6        -293.6192   -68.9612   188.8507 H6            1 RES     
   21650 H6        -293.4517   -68.3535   187.1603 H6            1 RES     
   21651 H6        -291.2572   -69.3114   186.8549 H6            1 RES     
   21652 H6        -291.2333   -70.0085   188.5176 H6            1 RES     
   21653 H6        -291.0959   -67.7393   189.4855 H6            1 RES     
   21654 H6        -291.3036   -66.9833   187.8545 H6            1 RES     
   21655 H6        -289.2252   -68.0473   187.0209 H6            1 RES     
   21656 H6        -288.9714   -68.8822   188.5982 H6            1 RES     
   21657 H6        -288.6665   -66.6883   189.7295 H6            1 RES     
   21658 H6        -288.9526   -65.8266   188.1580 H6            1 RES     
   21659 H6        -287.5191   -66.8987   188.3575 H6            1 RES     
   21660 C0        -304.6594   -80.7794   180.0295 C0            1 RES     
   21661 C1        -304.9191   -81.6792   181.0254 C1            1 RES     
   21662 C1        -305.8622   -81.2611   181.8929 C1            1 RES     
   21663 C1        -306.2674   -80.0614   181.6154 C1            1 RES     
   21664 C1        -305.5486   -79.5369   180.4411 C1            1 RES     
   21665 C1        -304.8690   -78.4086   181.2021 C1            1 RES     
   21666 C1        -305.3956   -78.0701   182.4150 C1            1 RES     
   21667 S2        -306.9485   -78.9498   182.7959 S2            1 RES     
   21668 C1        -304.7250   -77.1039   183.3828 C1            1 RES     
   21669 C1        -303.6830   -76.2299   182.9537 C1            1 RES     
   21670 N3        -303.0599   -75.3785   183.8191 N3            1 RES     
   21671 C1        -303.3662   -75.3173   185.1344 C1            1 RES     
   21672 C1        -304.3569   -76.1548   185.6316 C1            1 RES     
   21673 C1        -305.0468   -77.0471   184.7555 C1            1 RES     
   21674 N3        -305.9870   -77.8245   185.3631 N3            1 RES     
   21675 S2        -305.8982   -77.3405   186.9450 S2            1 RES     
   21676 N3        -304.7183   -76.1849   186.9375 N3            1 RES     
   21677 S2        -306.0956   -82.2986   183.1853 S2            1 RES     
   21678 C1        -304.9275   -83.3842   182.6159 C1            1 RES     
   21679 C1        -304.3394   -82.8878   181.4462 C1            1 RES     
   21680 C0        -305.0574   -81.4925   178.6484 C0            1 RES     
   21681 C0        -305.7953   -82.7813   178.0246 C0            1 RES     
   21682 C0        -305.3446   -84.1708   178.5757 C0            1 RES     
   21683 C0        -306.5335   -84.9454   179.1751 C0            1 RES     
   21684 C0        -306.1385   -86.2415   179.9057 C0            1 RES     
   21685 C0        -307.4111   -86.9817   180.3599 C0            1 RES     
   21686 C0        -307.1148   -88.1805   181.2695 C0            1 RES     
   21687 C0        -308.4118   -88.8946   181.6573 C0            1 RES     
   21688 C0        -305.5079   -82.6914   176.4600 C0            1 RES     
   21689 C0        -305.9740   -83.6927   175.3569 C0            1 RES     
   21690 C0        -305.1116   -84.9727   175.1331 C0            1 RES     
   21691 C0        -305.1956   -85.4684   173.6566 C0            1 RES     
   21692 C0        -304.2784   -86.6714   173.3537 C0            1 RES     
   21693 C0        -303.9548   -86.8596   171.8486 C0            1 RES     
   21694 C0        -305.1676   -87.0610   170.9284 C0            1 RES     
   21695 C0        -304.7157   -87.2794   169.4779 C0            1 RES     
   21696 C0        -303.0941   -80.5021   179.8148 C0            1 RES     
   21697 C0        -302.3882   -79.6746   178.5887 C0            1 RES     
   21698 C0        -302.6612   -80.3142   177.1684 C0            1 RES     
   21699 C0        -301.8249   -79.8637   175.9750 C0            1 RES     
   21700 C0        -302.0476   -80.6554   174.6738 C0            1 RES     
   21701 C0        -303.3993   -80.3434   173.9988 C0            1 RES     
   21702 C0        -303.3992   -80.7040   172.5021 C0            1 RES     
   21703 C0        -303.2945   -82.1944   172.2288 C0            1 RES     
   21704 C0        -302.4251   -78.0787   178.5777 C0            1 RES     
   21705 C0        -301.1115   -77.4705   177.9545 C0            1 RES     
   21706 C0        -300.7703   -75.9548   177.9516 C0            1 RES     
   21707 C0        -301.2893   -75.0601   176.7786 C0            1 RES     
   21708 C0        -300.2295   -73.9502   176.4955 C0            1 RES     
   21709 C0        -300.5246   -72.9590   175.3490 C0            1 RES     
   21710 C0        -299.2544   -72.1188   175.0636 C0            1 RES     
   21711 C0        -299.4518   -71.0587   173.9810 C0            1 RES     
   21712 H4        -303.9732   -77.9695   180.8484 H4            1 RES     
   21713 H5        -303.3726   -76.2024   181.9219 H5            1 RES     
   21714 H4        -303.5149   -83.3868   180.9621 H4            1 RES     
   21715 H6        -305.5048   -80.6516   178.0765 H6            1 RES     
   21716 H6        -304.1164   -81.8313   178.2641 H6            1 RES     
   21717 H6        -306.8919   -82.6689   178.1731 H6            1 RES     
   21718 H6        -304.8781   -84.7961   177.7935 H6            1 RES     
   21719 H6        -304.5375   -84.0574   179.2901 H6            1 RES     
   21720 H6        -307.0525   -84.2966   179.9147 H6            1 RES     
   21721 H6        -307.2381   -85.1814   178.3472 H6            1 RES     
   21722 H6        -305.5444   -86.9097   179.2440 H6            1 RES     
   21723 H6        -305.5191   -85.9717   180.7895 H6            1 RES     
   21724 H6        -307.9611   -87.3266   179.4557 H6            1 RES     
   21725 H6        -308.0630   -86.2808   180.9258 H6            1 RES     
   21726 H6        -306.4446   -88.9036   180.7573 H6            1 RES     
   21727 H6        -306.6146   -87.8209   182.1955 H6            1 RES     
   21728 H6        -309.1076   -88.1923   182.1654 H6            1 RES     
   21729 H6        -308.9112   -89.3035   180.7526 H6            1 RES     
   21730 H6        -308.1917   -89.7342   182.3496 H6            1 RES     
   21731 H6        -305.9562   -81.7196   176.1574 H6            1 RES     
   21732 H6        -304.4113   -82.6003   176.2941 H6            1 RES     
   21733 H6        -307.0596   -83.9138   175.3980 H6            1 RES     
   21734 H6        -305.8117   -83.0972   174.4305 H6            1 RES     
   21735 H6        -304.0419   -84.7118   175.2988 H6            1 RES     
   21736 H6        -305.3968   -85.7746   175.8441 H6            1 RES     
   21737 H6        -306.2400   -85.7054   173.3631 H6            1 RES     
   21738 H6        -304.8462   -84.6446   173.0163 H6            1 RES     
   21739 H6        -303.2920   -86.5041   173.8391 H6            1 RES     
   21740 H6        -304.7211   -87.5937   173.7862 H6            1 RES     
   21741 H6        -303.2843   -87.7422   171.7525 H6            1 RES     
   21742 H6        -303.3908   -85.9689   171.4913 H6            1 RES     
   21743 H6        -305.8158   -86.1599   170.9605 H6            1 RES     
   21744 H6        -305.7528   -87.9443   171.2580 H6            1 RES     
   21745 H6        -304.0875   -88.1930   169.3984 H6            1 RES     
   21746 H6        -304.1277   -86.4098   169.1118 H6            1 RES     
   21747 H6        -305.6001   -87.4052   168.8178 H6            1 RES     
   21748 H6        -302.7095   -80.0630   180.7615 H6            1 RES     
   21749 H6        -302.6059   -81.5019   179.7602 H6            1 RES     
   21750 H6        -301.3224   -79.8976   178.8124 H6            1 RES     
   21751 H6        -303.7165   -80.1496   176.8794 H6            1 RES     
   21752 H6        -302.4113   -81.3936   177.2522 H6            1 RES     
   21753 H6        -302.0763   -78.8205   175.7146 H6            1 RES     
   21754 H6        -300.7563   -79.9797   176.2581 H6            1 RES     
   21755 H6        -301.2502   -80.3009   173.9868 H6            1 RES     
   21756 H6        -301.9050   -81.7486   174.8259 H6            1 RES     
   21757 H6        -303.5629   -79.2454   174.0303 H6            1 RES     
   21758 H6        -304.2404   -80.8278   174.5381 H6            1 RES     
   21759 H6        -302.5552   -80.1814   172.0017 H6            1 RES     
   21760 H6        -304.3449   -80.3384   172.0464 H6            1 RES     
   21761 H6        -303.2865   -82.3712   171.1317 H6            1 RES     
   21762 H6        -304.1836   -82.6781   172.6578 H6            1 RES     
   21763 H6        -302.3713   -82.6300   172.6628 H6            1 RES     
   21764 H6        -303.3646   -77.6944   178.1233 H6            1 RES     
   21765 H6        -302.3542   -77.7220   179.6180 H6            1 RES     
   21766 H6        -300.3040   -77.9288   178.5653 H6            1 RES     
   21767 H6        -300.8974   -77.7738   176.9352 H6            1 RES     
   21768 H6        -299.6700   -76.0001   177.7881 H6            1 RES     
   21769 H6        -300.9045   -75.4693   178.9403 H6            1 RES     
   21770 H6        -302.2938   -74.6460   177.0136 H6            1 RES     
   21771 H6        -301.3647   -75.6580   175.8442 H6            1 RES     
   21772 H6        -299.2909   -74.4795   176.2142 H6            1 RES     
   21773 H6        -300.0362   -73.3663   177.4210 H6            1 RES     
   21774 H6        -301.3703   -72.2978   175.6368 H6            1 RES     
   21775 H6        -300.7944   -73.5080   174.4207 H6            1 RES     
   21776 H6        -298.4388   -72.7992   174.7293 H6            1 RES     
   21777 H6        -298.9204   -71.6053   175.9910 H6            1 RES     
   21778 H6        -300.2098   -70.3141   174.3009 H6            1 RES     
   21779 H6        -299.7642   -71.5229   173.0224 H6            1 RES     
   21780 H6        -298.4894   -70.5248   173.8119 H6            1 RES     
   21781 C0        -300.2436   -90.0352   186.9302 C0            1 RES     
   21782 C1        -300.7038   -89.6181   188.1480 C1            1 RES     
   21783 C1        -302.0487   -89.5995   188.2351 C1            1 RES     
   21784 C1        -302.6041   -89.9267   187.1105 C1            1 RES     
   21785 C1        -301.5754   -90.2006   186.0919 C1            1 RES     
   21786 C1        -301.9830   -89.0478   185.1868 C1            1 RES     
   21787 C1        -303.2193   -88.5055   185.3881 C1            1 RES     
   21788 S2        -304.2136   -89.4172   186.6172 S2            1 RES     
   21789 C1        -303.7002   -87.2319   184.7049 C1            1 RES     
   21790 C1        -303.0314   -86.7082   183.5595 C1            1 RES     
   21791 N3        -303.4404   -85.5548   182.9557 N3            1 RES     
   21792 C1        -304.4832   -84.8221   183.4065 C1            1 RES     
   21793 C1        -305.1714   -85.2574   184.5321 C1            1 RES     
   21794 C1        -304.7874   -86.4697   185.1822 C1            1 RES     
   21795 N3        -305.5303   -86.7839   186.2808 N3            1 RES     
   21796 S2        -306.6163   -85.5354   186.3601 S2            1 RES     
   21797 N3        -306.2133   -84.5808   185.0739 N3            1 RES     
   21798 S2        -302.6214   -88.9704   189.6765 S2            1 RES     
   21799 C1        -301.0558   -88.7051   190.2645 C1            1 RES     
   21800 C1        -300.1109   -89.0695   189.2976 C1            1 RES     
   21801 C0        -299.4122   -91.3830   187.1882 C0            1 RES     
   21802 C0        -299.0703   -92.4985   188.2988 C0            1 RES     
   21803 C0        -298.5807   -91.9688   189.6835 C0            1 RES     
   21804 C0        -299.4933   -92.4603   190.8230 C0            1 RES     
   21805 C0        -299.1872   -91.8296   192.1934 C0            1 RES     
   21806 C0        -300.0819   -92.4780   193.2670 C0            1 RES     
   21807 C0        -299.9904   -91.7758   194.6276 C0            1 RES     
   21808 C0        -300.8711   -92.4851   195.6589 C0            1 RES     
   21809 C0        -297.9435   -93.4028   187.6270 C0            1 RES     
   21810 C0        -297.2239   -94.6358   188.2583 C0            1 RES     
   21811 C0        -296.0120   -94.3599   189.2005 C0            1 RES     
   21812 C0        -294.9829   -95.5314   189.1672 C0            1 RES     
   21813 C0        -293.7127   -95.2643   190.0012 C0            1 RES     
   21814 C0        -292.4946   -96.1362   189.5991 C0            1 RES     
   21815 C0        -292.7037   -97.6545   189.6950 C0            1 RES     
   21816 C0        -291.4184   -98.4026   189.3157 C0            1 RES     
   21817 C0        -299.1205   -89.0720   186.3105 C0            1 RES     
   21818 C0        -298.1808   -89.3538   184.9976 C0            1 RES     
   21819 C0        -297.2650   -90.6340   185.1512 C0            1 RES     
   21820 C0        -296.1153   -90.8497   184.1724 C0            1 RES     
   21821 C0        -295.1813   -92.0293   184.4976 C0            1 RES     
   21822 C0        -295.8272   -93.4047   184.2303 C0            1 RES     
   21823 C0        -294.7768   -94.5156   184.0500 C0            1 RES     
   21824 C0        -293.9865   -94.8247   185.3097 C0            1 RES     
   21825 C0        -298.7883   -89.1872   183.5307 C0            1 RES     
   21826 C0        -297.7126   -88.6473   182.5132 C0            1 RES     
   21827 C0        -298.0313   -88.2237   181.0528 C0            1 RES     
   21828 C0        -298.0049   -89.3054   179.9236 C0            1 RES     
   21829 C0        -297.5000   -88.6359   178.6076 C0            1 RES     
   21830 C0        -297.3690   -89.5319   177.3570 C0            1 RES     
   21831 C0        -296.6162   -88.7525   176.2495 C0            1 RES     
   21832 C0        -296.4815   -89.5269   174.9392 C0            1 RES     
   21833 H4        -301.3022   -88.6259   184.4949 H4            1 RES     
   21834 H5        -302.1921   -87.2251   183.1232 H5            1 RES     
   21835 H4        -299.0541   -88.9072   189.4383 H4            1 RES     
   21836 H6        -299.6843   -91.9939   186.3010 H6            1 RES     
   21837 H6        -298.3942   -91.0491   187.1939 H6            1 RES     
   21838 H6        -299.9690   -93.1361   188.4498 H6            1 RES     
   21839 H6        -297.5447   -92.2819   189.9050 H6            1 RES     
   21840 H6        -298.4965   -90.8883   189.6736 H6            1 RES     
   21841 H6        -300.5486   -92.2109   190.5750 H6            1 RES     
   21842 H6        -299.3911   -93.5662   190.8878 H6            1 RES     
   21843 H6        -298.1201   -91.9742   192.4720 H6            1 RES     
   21844 H6        -299.3956   -90.7386   192.1324 H6            1 RES     
   21845 H6        -299.7849   -93.5451   193.3774 H6            1 RES     
   21846 H6        -301.1428   -92.4375   192.9363 H6            1 RES     
   21847 H6        -298.9415   -91.7682   194.9937 H6            1 RES     
   21848 H6        -300.3411   -90.7258   194.5204 H6            1 RES     
   21849 H6        -301.9278   -92.5159   195.3152 H6            1 RES     
   21850 H6        -300.5147   -93.5256   195.8186 H6            1 RES     
   21851 H6        -300.8321   -91.9453   196.6283 H6            1 RES     
   21852 H6        -298.4296   -93.8062   186.7117 H6            1 RES     
   21853 H6        -297.1091   -92.7520   187.2826 H6            1 RES     
   21854 H6        -297.9261   -95.3842   188.6777 H6            1 RES     
   21855 H6        -296.7622   -95.1087   187.3626 H6            1 RES     
   21856 H6        -295.4623   -93.4702   188.8181 H6            1 RES     
   21857 H6        -296.3514   -94.1511   190.2353 H6            1 RES     
   21858 H6        -295.4454   -96.4916   189.4790 H6            1 RES     
   21859 H6        -294.6500   -95.6428   188.1243 H6            1 RES     
   21860 H6        -293.3826   -94.2163   189.8300 H6            1 RES     
   21861 H6        -293.9471   -95.3778   191.0809 H6            1 RES     
   21862 H6        -291.6417   -95.8520   190.2546 H6            1 RES     
   21863 H6        -292.2099   -95.8893   188.5517 H6            1 RES     
   21864 H6        -293.5087   -97.9664   188.9964 H6            1 RES     
   21865 H6        -292.9890   -97.9347   190.7301 H6            1 RES     
   21866 H6        -290.5937   -98.1398   190.0132 H6            1 RES     
   21867 H6        -291.1037   -98.1481   188.2802 H6            1 RES     
   21868 H6        -291.5854   -99.4994   189.3699 H6            1 RES     
   21869 H6        -299.5939   -88.0772   186.1587 H6            1 RES     
   21870 H6        -298.3771   -88.8990   187.1220 H6            1 RES     
   21871 H6        -297.4909   -88.4863   185.0815 H6            1 RES     
   21872 H6        -297.8860   -91.5481   185.0967 H6            1 RES     
   21873 H6        -296.7438   -90.5370   186.1276 H6            1 RES     
   21874 H6        -296.5160   -91.0780   183.1691 H6            1 RES     
   21875 H6        -295.4993   -89.9244   184.1777 H6            1 RES     
   21876 H6        -294.3338   -91.9233   183.7877 H6            1 RES     
   21877 H6        -294.7719   -91.9595   185.5300 H6            1 RES     
   21878 H6        -296.3657   -93.3577   183.2601 H6            1 RES     
   21879 H6        -296.5670   -93.6623   185.0173 H6            1 RES     
   21880 H6        -294.0729   -94.2234   183.2406 H6            1 RES     
   21881 H6        -295.2930   -95.4475   183.7330 H6            1 RES     
   21882 H6        -293.2432   -95.6225   185.0956 H6            1 RES     
   21883 H6        -294.6924   -95.1939   186.0673 H6            1 RES     
   21884 H6        -293.4468   -93.9325   185.6880 H6            1 RES     
   21885 H6        -299.3079   -90.1116   183.1957 H6            1 RES     
   21886 H6        -299.5079   -88.3526   183.5451 H6            1 RES     
   21887 H6        -297.3537   -87.7120   182.9944 H6            1 RES     
   21888 H6        -296.8263   -89.2632   182.4039 H6            1 RES     
   21889 H6        -297.1455   -87.5857   180.8341 H6            1 RES     
   21890 H6        -298.9102   -87.5515   180.9690 H6            1 RES     
   21891 H6        -299.0036   -89.7801   179.8093 H6            1 RES     
   21892 H6        -297.2644   -90.0979   180.1684 H6            1 RES     
   21893 H6        -296.4765   -88.2541   178.8244 H6            1 RES     
   21894 H6        -298.1476   -87.7701   178.3507 H6            1 RES     
   21895 H6        -298.3802   -89.8284   177.0036 H6            1 RES     
   21896 H6        -296.7861   -90.4481   177.5950 H6            1 RES     
   21897 H6        -295.5905   -88.5123   176.6102 H6            1 RES     
   21898 H6        -297.1407   -87.7969   176.0319 H6            1 RES     
   21899 H6        -297.4818   -89.7293   174.5037 H6            1 RES     
   21900 H6        -295.9410   -90.4834   175.0966 H6            1 RES     
   21901 H6        -295.9022   -88.9156   174.2108 H6            1 RES     
   21902 C0        -297.9749   -83.2307   196.9970 C0            1 RES     
   21903 C1        -299.1967   -82.6290   197.1151 C1            1 RES     
   21904 C1        -300.1967   -83.4937   197.3776 C1            1 RES     
   21905 C1        -299.7748   -84.7193   197.3972 C1            1 RES     
   21906 C1        -298.3306   -84.7683   197.1098 C1            1 RES     
   21907 C1        -298.4858   -85.5500   195.8139 C1            1 RES     
   21908 C1        -299.6730   -86.1927   195.6130 C1            1 RES     
   21909 S2        -300.7850   -86.1185   197.0581 S2            1 RES     
   21910 C1        -300.0599   -86.8518   194.2954 C1            1 RES     
   21911 C1        -299.0835   -87.1398   193.2968 C1            1 RES     
   21912 N3        -299.4246   -87.7077   192.1037 N3            1 RES     
   21913 C1        -300.6997   -88.0153   191.7769 C1            1 RES     
   21914 C1        -301.7101   -87.7437   192.6910 C1            1 RES     
   21915 C1        -301.3933   -87.1674   193.9587 C1            1 RES     
   21916 N3        -302.4700   -86.9376   194.7622 N3            1 RES     
   21917 S2        -303.7378   -87.4749   193.8411 S2            1 RES     
   21918 N3        -303.0198   -87.9928   192.4468 N3            1 RES     
   21919 S2        -301.7124   -82.7841   197.3980 S2            1 RES     
   21920 C1        -301.0767   -81.2506   197.0640 C1            1 RES     
   21921 C1        -299.6893   -81.3321   196.8932 C1            1 RES     
   21922 C0        -297.0550   -82.6415   198.1722 C0            1 RES     
   21923 C0        -297.0856   -81.7542   199.5162 C0            1 RES     
   21924 C0        -297.7876   -80.3636   199.4114 C0            1 RES     
   21925 C0        -298.9425   -80.2442   200.4237 C0            1 RES     
   21926 C0        -299.8011   -78.9778   200.2550 C0            1 RES     
   21927 C0        -300.8454   -78.9126   201.3859 C0            1 RES     
   21928 C0        -301.8743   -77.7925   201.1879 C0            1 RES     
   21929 C0        -302.8603   -77.7553   202.3578 C0            1 RES     
   21930 C0        -295.5529   -81.5676   199.9099 C0            1 RES     
   21931 C0        -294.9823   -80.7754   201.1280 C0            1 RES     
   21932 C0        -294.8148   -79.2328   200.9712 C0            1 RES     
   21933 C0        -293.6433   -78.6924   201.8476 C0            1 RES     
   21934 C0        -293.3653   -77.1876   201.6512 C0            1 RES     
   21935 C0        -291.9462   -76.7417   202.0902 C0            1 RES     
   21936 C0        -291.5912   -77.0082   203.5603 C0            1 RES     
   21937 C0        -290.1847   -76.4841   203.8807 C0            1 RES     
   21938 C0        -297.1654   -82.7754   195.6891 C0            1 RES     
   21939 C0        -295.5999   -83.0965   195.3246 C0            1 RES     
   21940 C0        -294.5822   -82.5150   196.3862 C0            1 RES     
   21941 C0        -293.0992   -82.4448   196.0362 C0            1 RES     
   21942 C0        -292.2110   -81.7159   197.0605 C0            1 RES     
   21943 C0        -291.9913   -82.5248   198.3558 C0            1 RES     
   21944 C0        -290.7372   -82.0667   199.1222 C0            1 RES     
   21945 C0        -290.8431   -80.6625   199.6912 C0            1 RES     
   21946 C0        -295.1868   -84.5399   194.7819 C0            1 RES     
   21947 C0        -294.0105   -84.4537   193.7365 C0            1 RES     
   21948 C0        -293.4943   -85.6608   192.9057 C0            1 RES     
   21949 C0        -292.3847   -86.5822   193.5106 C0            1 RES     
   21950 C0        -291.4722   -87.0867   192.3496 C0            1 RES     
   21951 C0        -290.2836   -87.9991   192.7226 C0            1 RES     
   21952 C0        -289.3662   -88.1700   191.4857 C0            1 RES     
   21953 C0        -288.1833   -89.1070   191.7254 C0            1 RES     
   21954 H4        -297.7415   -85.5195   195.0620 H4            1 RES     
   21955 H5        -298.0391   -86.9355   193.4676 H5            1 RES     
   21956 H4        -299.0969   -80.4815   196.5956 H4            1 RES     
   21957 H6        -296.4761   -83.5378   198.4818 H6            1 RES     
   21958 H6        -296.4703   -81.8924   197.6774 H6            1 RES     
   21959 H6        -297.5709   -82.3474   200.3222 H6            1 RES     
   21960 H6        -297.0839   -79.5294   199.5831 H6            1 RES     
   21961 H6        -298.1210   -80.1770   198.3972 H6            1 RES     
   21962 H6        -299.6198   -81.1185   200.3051 H6            1 RES     
   21963 H6        -298.5030   -80.2660   201.4454 H6            1 RES     
   21964 H6        -299.1729   -78.0603   200.2853 H6            1 RES     
   21965 H6        -300.3117   -79.0285   199.2679 H6            1 RES     
   21966 H6        -300.3120   -78.7625   202.3513 H6            1 RES     
   21967 H6        -301.3989   -79.8758   201.4325 H6            1 RES     
   21968 H6        -301.3686   -76.8062   201.1113 H6            1 RES     
   21969 H6        -302.4409   -77.9795   200.2492 H6            1 RES     
   21970 H6        -303.3767   -78.7338   202.4648 H6            1 RES     
   21971 H6        -302.3256   -77.5258   203.3046 H6            1 RES     
   21972 H6        -303.6264   -76.9704   202.1851 H6            1 RES     
   21973 H6        -295.1828   -82.6058   200.0584 H6            1 RES     
   21974 H6        -294.9987   -81.1549   199.0376 H6            1 RES     
   21975 H6        -295.4541   -81.0557   202.0912 H6            1 RES     
   21976 H6        -293.9363   -81.1536   201.1711 H6            1 RES     
   21977 H6        -294.5244   -79.0139   199.9187 H6            1 RES     
   21978 H6        -295.7633   -78.7041   201.1961 H6            1 RES     
   21979 H6        -293.8035   -78.9101   202.9247 H6            1 RES     
   21980 H6        -292.7303   -79.2190   201.5315 H6            1 RES     
   21981 H6        -293.4162   -76.9501   200.5659 H6            1 RES     
   21982 H6        -294.1491   -76.5949   202.1687 H6            1 RES     
   21983 H6        -291.8568   -75.6501   201.8944 H6            1 RES     
   21984 H6        -291.1963   -77.2600   201.4515 H6            1 RES     
   21985 H6        -291.6105   -78.1008   203.7581 H6            1 RES     
   21986 H6        -292.3218   -76.5032   204.2258 H6            1 RES     
   21987 H6        -290.1330   -75.3848   203.7243 H6            1 RES     
   21988 H6        -289.4239   -76.9722   203.2335 H6            1 RES     
   21989 H6        -289.9303   -76.6983   204.9405 H6            1 RES     
   21990 H6        -297.7699   -83.0859   194.8088 H6            1 RES     
   21991 H6        -297.2071   -81.6623   195.6693 H6            1 RES     
   21992 H6        -295.4892   -82.4515   194.4261 H6            1 RES     
   21993 H6        -294.6456   -83.0973   197.3249 H6            1 RES     
   21994 H6        -294.8523   -81.4475   196.5342 H6            1 RES     
   21995 H6        -292.6801   -83.4647   195.9775 H6            1 RES     
   21996 H6        -293.0132   -81.8996   195.0714 H6            1 RES     
   21997 H6        -291.2227   -81.6226   196.5625 H6            1 RES     
   21998 H6        -292.5835   -80.6891   197.2736 H6            1 RES     
   21999 H6        -291.7903   -83.5817   198.0805 H6            1 RES     
   22000 H6        -292.8956   -82.5076   198.9999 H6            1 RES     
   22001 H6        -289.8569   -82.1203   198.4452 H6            1 RES     
   22002 H6        -290.5599   -82.7659   199.9679 H6            1 RES     
   22003 H6        -289.8982   -80.4015   200.2147 H6            1 RES     
   22004 H6        -291.6645   -80.6569   200.4217 H6            1 RES     
   22005 H6        -291.0268   -79.9085   198.8987 H6            1 RES     
   22006 H6        -295.0037   -85.2532   195.6152 H6            1 RES     
   22007 H6        -296.0062   -84.9222   194.1519 H6            1 RES     
   22008 H6        -294.3996   -83.7460   192.9731 H6            1 RES     
   22009 H6        -293.0971   -83.9965   194.1018 H6            1 RES     
   22010 H6        -292.9764   -85.1247   192.0787 H6            1 RES     
   22011 H6        -294.3049   -86.2434   192.4212 H6            1 RES     
   22012 H6        -292.8375   -87.4130   194.0942 H6            1 RES     
   22013 H6        -291.7251   -85.9956   194.1867 H6            1 RES     
   22014 H6        -291.0306   -86.1774   191.8821 H6            1 RES     
   22015 H6        -292.0864   -87.6085   191.5846 H6            1 RES     
   22016 H6        -290.6643   -88.9864   193.0625 H6            1 RES     
   22017 H6        -289.6843   -87.5417   193.5396 H6            1 RES     
   22018 H6        -288.9591   -87.1745   191.1974 H6            1 RES     
   22019 H6        -289.9516   -88.5675   190.6286 H6            1 RES     
   22020 H6        -288.5407   -90.1336   191.9487 H6            1 RES     
   22021 H6        -287.5494   -88.7415   192.5599 H6            1 RES     
   22022 H6        -287.5574   -89.1490   190.8055 H6            1 RES     
   22023 C0        -305.0692   -73.6420   193.7540 C0            1 RES     
   22024 C1        -306.2173   -74.3265   193.4673 C1            1 RES     
   22025 C1        -306.7581   -74.9387   194.5393 C1            1 RES     
   22026 C1        -306.0234   -74.7869   195.5965 C1            1 RES     
   22027 C1        -304.8199   -74.0001   195.2750 C1            1 RES     
   22028 C1        -303.8458   -75.1281   195.5801 C1            1 RES     
   22029 C1        -304.3152   -76.1719   196.3239 C1            1 RES     
   22030 S2        -306.0055   -75.9016   196.9568 S2            1 RES     
   22031 C1        -303.5350   -77.4599   196.5518 C1            1 RES     
   22032 C1        -302.1343   -77.5327   196.2939 C1            1 RES     
   22033 N3        -301.4319   -78.6891   196.4719 N3            1 RES     
   22034 C1        -302.0093   -79.8412   196.8803 C1            1 RES     
   22035 C1        -303.3757   -79.8542   197.1307 C1            1 RES     
   22036 C1        -304.1439   -78.6604   196.9750 C1            1 RES     
   22037 N3        -305.4735   -78.8032   197.2383 N3            1 RES     
   22038 S2        -305.5968   -80.4022   197.6535 S2            1 RES     
   22039 N3        -304.0494   -80.9640   197.5198 N3            1 RES     
   22040 S2        -308.0914   -75.8823   194.1743 S2            1 RES     
   22041 C1        -308.0079   -75.4888   192.5295 C1            1 RES     
   22042 C1        -306.9037   -74.6623   192.2883 C1            1 RES     
   22043 C0        -305.3640   -72.0958   193.4427 C0            1 RES     
   22044 C0        -306.5364   -71.0487   193.0912 C0            1 RES     
   22045 C0        -307.4755   -71.4340   191.9049 C0            1 RES     
   22046 C0        -308.9471   -71.4959   192.3560 C0            1 RES     
   22047 C0        -309.9107   -72.0505   191.2914 C0            1 RES     
   22048 C0        -311.3576   -71.9584   191.8124 C0            1 RES     
   22049 C0        -312.3682   -72.6698   190.9041 C0            1 RES     
   22050 C0        -313.7881   -72.5132   191.4535 C0            1 RES     
   22051 C0        -305.7756   -69.6862   192.7694 C0            1 RES     
   22052 C0        -306.4156   -68.3254   192.3507 C0            1 RES     
   22053 C0        -306.7712   -68.1280   190.8451 C0            1 RES     
   22054 C0        -306.6891   -66.6268   190.4297 C0            1 RES     
   22055 C0        -306.9293   -66.3862   188.9248 C0            1 RES     
   22056 C0        -306.3712   -65.0373   188.4008 C0            1 RES     
   22057 C0        -306.9260   -63.7786   189.0835 C0            1 RES     
   22058 C0        -306.3328   -62.5132   188.4492 C0            1 RES     
   22059 C0        -303.8697   -73.9571   192.7366 C0            1 RES     
   22060 C0        -302.4340   -73.1755   192.6168 C0            1 RES     
   22061 C0        -302.5880   -71.6436   192.2555 C0            1 RES     
   22062 C0        -301.3631   -70.8597   191.7955 C0            1 RES     
   22063 C0        -301.6390   -69.4253   191.3098 C0            1 RES     
   22064 C0        -301.9812   -68.4525   192.4574 C0            1 RES     
   22065 C0        -301.7435   -66.9831   192.0649 C0            1 RES     
   22066 C0        -302.6841   -66.4750   190.9859 C0            1 RES     
   22067 C0        -301.2804   -73.4575   193.6837 C0            1 RES     
   22068 C0        -299.8494   -73.3786   193.0280 C0            1 RES     
   22069 C0        -298.5343   -73.7648   193.7595 C0            1 RES     
   22070 C0        -297.7900   -72.6831   194.6090 C0            1 RES     
   22071 C0        -296.2547   -72.9427   194.5068 C0            1 RES     
   22072 C0        -295.3163   -71.9704   195.2540 C0            1 RES     
   22073 C0        -293.8540   -72.2389   194.8176 C0            1 RES     
   22074 C0        -292.8288   -71.3684   195.5430 C0            1 RES     
   22075 H4        -302.8761   -75.1455   195.1564 H4            1 RES     
   22076 H5        -301.5845   -76.6640   195.9702 H5            1 RES     
   22077 H4        -306.6210   -74.3584   191.2929 H4            1 RES     
   22078 H6        -304.8188   -71.5878   194.2667 H6            1 RES     
   22079 H6        -304.9284   -71.9504   192.4748 H6            1 RES     
   22080 H6        -307.1508   -70.8844   194.0037 H6            1 RES     
   22081 H6        -307.3966   -70.7211   191.0647 H6            1 RES     
   22082 H6        -307.1556   -72.3632   191.4479 H6            1 RES     
   22083 H6        -309.0253   -72.1579   193.2465 H6            1 RES     
   22084 H6        -309.2582   -70.4675   192.6442 H6            1 RES     
   22085 H6        -309.8285   -71.4800   190.3400 H6            1 RES     
   22086 H6        -309.6437   -73.1125   191.0950 H6            1 RES     
   22087 H6        -311.6320   -70.8836   191.9055 H6            1 RES     
   22088 H6        -311.4178   -72.4282   192.8183 H6            1 RES     
   22089 H6        -312.3316   -72.2514   189.8755 H6            1 RES     
   22090 H6        -312.1198   -73.7530   190.8603 H6            1 RES     
   22091 H6        -313.8537   -72.9163   192.4873 H6            1 RES     
   22092 H6        -314.0794   -71.4408   191.4668 H6            1 RES     
   22093 H6        -314.5070   -73.0669   190.8137 H6            1 RES     
   22094 H6        -305.2251   -69.4549   193.7077 H6            1 RES     
   22095 H6        -305.0058   -69.8728   191.9877 H6            1 RES     
   22096 H6        -307.2323   -68.0005   193.0261 H6            1 RES     
   22097 H6        -305.5716   -67.6194   192.5195 H6            1 RES     
   22098 H6        -306.0039   -68.6494   190.2292 H6            1 RES     
   22099 H6        -307.7668   -68.5567   190.6114 H6            1 RES     
   22100 H6        -307.3810   -65.9978   191.0287 H6            1 RES     
   22101 H6        -305.6631   -66.2873   190.6369 H6            1 RES     
   22102 H6        -306.3872   -67.1644   188.3441 H6            1 RES     
   22103 H6        -308.0129   -66.4847   188.7017 H6            1 RES     
   22104 H6        -306.5912   -64.9782   187.3118 H6            1 RES     
   22105 H6        -305.2645   -65.0391   188.5202 H6            1 RES     
   22106 H6        -306.6578   -63.7881   190.1611 H6            1 RES     
   22107 H6        -308.0306   -63.7461   188.9819 H6            1 RES     
   22108 H6        -306.6061   -62.4511   187.3735 H6            1 RES     
   22109 H6        -305.2244   -62.5097   188.5359 H6            1 RES     
   22110 H6        -306.7257   -61.6095   188.9620 H6            1 RES     
   22111 H6        -303.6381   -75.0405   192.8335 H6            1 RES     
   22112 H6        -304.2972   -73.8605   191.7124 H6            1 RES     
   22113 H6        -302.0437   -73.6580   191.6946 H6            1 RES     
   22114 H6        -302.9929   -71.0920   193.1249 H6            1 RES     
   22115 H6        -303.2611   -71.5910   191.3731 H6            1 RES     
   22116 H6        -300.6581   -70.7397   192.6370 H6            1 RES     
   22117 H6        -300.9126   -71.4190   190.9472 H6            1 RES     
   22118 H6        -300.6775   -69.0856   190.8698 H6            1 RES     
   22119 H6        -302.4085   -69.4022   190.5062 H6            1 RES     
   22120 H6        -301.2822   -68.6422   193.2993 H6            1 RES     
   22121 H6        -303.0143   -68.6164   192.8300 H6            1 RES     
   22122 H6        -300.6937   -66.8638   191.7189 H6            1 RES     
   22123 H6        -301.8802   -66.3460   192.9654 H6            1 RES     
   22124 H6        -302.4409   -65.4168   190.7492 H6            1 RES     
   22125 H6        -303.7080   -66.5215   191.3834 H6            1 RES     
   22126 H6        -302.6048   -67.0718   190.0543 H6            1 RES     
   22127 H6        -301.4002   -72.8270   194.5919 H6            1 RES     
   22128 H6        -301.3258   -74.5201   193.9724 H6            1 RES     
   22129 H6        -299.9143   -74.1022   192.1871 H6            1 RES     
   22130 H6        -299.6036   -72.4302   192.5623 H6            1 RES     
   22131 H6        -297.8632   -73.9289   192.8864 H6            1 RES     
   22132 H6        -298.5889   -74.7429   194.2808 H6            1 RES     
   22133 H6        -298.1578   -72.6844   195.6581 H6            1 RES     
   22134 H6        -297.9598   -71.6725   194.1777 H6            1 RES     
   22135 H6        -295.9948   -72.8566   193.4273 H6            1 RES     
   22136 H6        -296.0225   -73.9772   194.8396 H6            1 RES     
   22137 H6        -295.4266   -72.1150   196.3504 H6            1 RES     
   22138 H6        -295.5670   -70.9173   195.0011 H6            1 RES     
   22139 H6        -293.7599   -72.0381   193.7264 H6            1 RES     
   22140 H6        -293.5911   -73.3034   194.9991 H6            1 RES     
   22141 H6        -292.8369   -71.5850   196.6313 H6            1 RES     
   22142 H6        -293.0322   -70.2905   195.3742 H6            1 RES     
   22143 H6        -291.8121   -71.5965   195.1505 H6            1 RES     
   22144 C0        -311.5745   -79.6504   185.1303 C0            1 RES     
   22145 C1        -311.9486   -80.7335   185.8758 C1            1 RES     
   22146 C1        -312.7579   -80.4204   186.9072 C1            1 RES     
   22147 C1        -312.9485   -79.1410   186.9927 C1            1 RES     
   22148 C1        -312.2006   -78.4400   185.9344 C1            1 RES     
   22149 C1        -311.2910   -77.6912   186.8968 C1            1 RES     
   22150 C1        -311.6901   -77.6166   188.2000 C1            1 RES     
   22151 S2        -313.3588   -78.2996   188.4817 S2            1 RES     
   22152 C1        -310.8096   -77.0767   189.3194 C1            1 RES     
   22153 C1        -309.6459   -76.3019   189.0380 C1            1 RES     
   22154 N3        -308.8378   -75.8349   190.0335 N3            1 RES     
   22155 C1        -309.0667   -76.0873   191.3417 C1            1 RES     
   22156 C1        -310.1702   -76.8545   191.6932 C1            1 RES     
   22157 C1        -311.0518   -77.3464   190.6830 C1            1 RES     
   22158 N3        -312.0897   -78.0953   191.1517 N3            1 RES     
   22159 S2        -311.8407   -78.0852   192.7895 S2            1 RES     
   22160 N3        -310.4703   -77.1819   192.9737 N3            1 RES     
   22161 S2        -313.1179   -81.7196   187.8990 S2            1 RES     
   22162 C1        -312.1964   -82.7839   186.9580 C1            1 RES     
   22163 C1        -311.5817   -82.0893   185.9091 C1            1 RES     
   22164 C0        -312.1599   -79.8820   183.6544 C0            1 RES     
   22165 C0        -313.1498   -80.8109   182.7874 C0            1 RES     
   22166 C0        -312.9367   -82.3527   182.9107 C0            1 RES     
   22167 C0        -314.2187   -83.0558   183.3955 C0            1 RES     
   22168 C0        -314.0350   -84.5491   183.7209 C0            1 RES     
   22169 C0        -315.3994   -85.1660   184.0831 C0            1 RES     
   22170 C0        -315.2865   -86.6001   184.6153 C0            1 RES     
   22171 C0        -316.6732   -87.1701   184.9228 C0            1 RES     
   22172 C0        -312.9232   -80.3438   181.2810 C0            1 RES     
   22173 C0        -313.6156   -80.9135   180.0032 C0            1 RES     
   22174 C0        -313.0140   -82.2066   179.3721 C0            1 RES     
   22175 C0        -313.2556   -82.2575   177.8320 C0            1 RES     
   22176 C0        -312.5897   -83.4650   177.1399 C0            1 RES     
   22177 C0        -312.3759   -83.2836   175.6145 C0            1 RES     
   22178 C0        -313.6462   -83.0229   174.7919 C0            1 RES     
   22179 C0        -313.3095   -82.9063   173.2990 C0            1 RES     
   22180 C0        -309.9965   -79.5858   184.8494 C0            1 RES     
   22181 C0        -309.2080   -78.5814   183.8218 C0            1 RES     
   22182 C0        -309.6590   -78.7531   182.3158 C0            1 RES     
   22183 C0        -308.8102   -78.1362   181.2087 C0            1 RES     
   22184 C0        -309.2342   -78.4930   179.7726 C0            1 RES     
   22185 C0        -310.5354   -77.7903   179.3330 C0            1 RES     
   22186 C0        -310.6706   -77.7214   177.8011 C0            1 RES     
   22187 C0        -310.8539   -79.0759   177.1385 C0            1 RES     
   22188 C0        -308.9519   -77.0601   184.2324 C0            1 RES     
   22189 C0        -307.5791   -76.5286   183.6695 C0            1 RES     
   22190 C0        -306.9661   -75.1477   184.0313 C0            1 RES     
   22191 C0        -307.3656   -73.8930   183.1875 C0            1 RES     
   22192 C0        -306.1344   -72.9377   183.1064 C0            1 RES     
   22193 C0        -306.2952   -71.6356   182.2923 C0            1 RES     
   22194 C0        -304.9069   -70.9698   182.1185 C0            1 RES     
   22195 C0        -304.9561   -69.6360   181.3747 C0            1 RES     
   22196 H4        -310.3472   -77.3252   186.5877 H4            1 RES     
   22197 H5        -309.3836   -76.0438   188.0249 H5            1 RES     
   22198 H4        -310.8861   -82.5647   185.2360 H4            1 RES     
   22199 H6        -312.4712   -78.8549   183.3672 H6            1 RES     
   22200 H6        -311.3158   -80.2521   183.1082 H6            1 RES     
   22201 H6        -314.1990   -80.5650   183.0625 H6            1 RES     
   22202 H6        -312.6295   -82.8072   181.9518 H6            1 RES     
   22203 H6        -312.0904   -82.5736   183.5506 H6            1 RES     
   22204 H6        -314.5751   -82.5587   184.3245 H6            1 RES     
   22205 H6        -314.9920   -82.9366   182.6047 H6            1 RES     
   22206 H6        -313.6048   -85.0984   182.8545 H6            1 RES     
   22207 H6        -313.3365   -84.6376   184.5822 H6            1 RES     
   22208 H6        -316.0445   -85.1546   183.1761 H6            1 RES     
   22209 H6        -315.8848   -84.5501   184.8714 H6            1 RES     
   22210 H6        -314.7847   -87.2548   183.8710 H6            1 RES     
   22211 H6        -314.6867   -86.5955   185.5518 H6            1 RES     
   22212 H6        -317.2042   -86.5297   185.6602 H6            1 RES     
   22213 H6        -317.2804   -87.2275   183.9938 H6            1 RES     
   22214 H6        -316.5792   -88.1916   185.3474 H6            1 RES     
   22215 H6        -313.1990   -79.2664   181.2868 H6            1 RES     
   22216 H6        -311.8374   -80.3920   181.0423 H6            1 RES     
   22217 H6        -314.7202   -80.9560   180.0868 H6            1 RES     
   22218 H6        -313.3896   -80.1219   179.2539 H6            1 RES     
   22219 H6        -311.9081   -82.1805   179.4989 H6            1 RES     
   22220 H6        -313.4084   -83.1146   179.8719 H6            1 RES     
   22221 H6        -314.3381   -82.2301   177.5862 H6            1 RES     
   22222 H6        -312.7908   -81.3587   177.3996 H6            1 RES     
   22223 H6        -311.5680   -83.6016   177.5572 H6            1 RES     
   22224 H6        -313.1737   -84.3848   177.3556 H6            1 RES     
   22225 H6        -311.8839   -84.2037   175.2281 H6            1 RES     
   22226 H6        -311.6751   -82.4343   175.4514 H6            1 RES     
   22227 H6        -314.1158   -82.0715   175.1196 H6            1 RES     
   22228 H6        -314.3678   -83.8542   174.9324 H6            1 RES     
   22229 H6        -312.8640   -83.8533   172.9244 H6            1 RES     
   22230 H6        -312.5894   -82.0784   173.1196 H6            1 RES     
   22231 H6        -314.2315   -82.6992   172.7153 H6            1 RES     
   22232 H6        -309.4945   -79.4926   185.8374 H6            1 RES     
   22233 H6        -309.7030   -80.5984   184.4893 H6            1 RES     
   22234 H6        -308.1921   -79.0290   183.8780 H6            1 RES     
   22235 H6        -310.6783   -78.3446   182.1806 H6            1 RES     
   22236 H6        -309.6079   -79.8398   182.0903 H6            1 RES     
   22237 H6        -308.8776   -77.0350   181.2553 H6            1 RES     
   22238 H6        -307.7691   -78.4993   181.3498 H6            1 RES     
   22239 H6        -308.4179   -78.0995   179.1305 H6            1 RES     
   22240 H6        -309.2878   -79.5939   179.6192 H6            1 RES     
   22241 H6        -310.4931   -76.7316   179.6661 H6            1 RES     
   22242 H6        -311.4253   -78.2591   179.8035 H6            1 RES     
   22243 H6        -309.7690   -77.2276   177.3778 H6            1 RES     
   22244 H6        -311.5530   -77.0948   177.5479 H6            1 RES     
   22245 H6        -310.9290   -78.9438   176.0377 H6            1 RES     
   22246 H6        -311.7958   -79.5059   177.5077 H6            1 RES     
   22247 H6        -310.0073   -79.7592   177.3546 H6            1 RES     
   22248 H6        -309.8248   -76.4171   183.9849 H6            1 RES     
   22249 H6        -308.7688   -77.0191   185.3184 H6            1 RES     
   22250 H6        -306.8422   -77.2630   184.0602 H6            1 RES     
   22251 H6        -307.4716   -76.5716   182.5908 H6            1 RES     
   22252 H6        -305.9015   -75.3264   183.7589 H6            1 RES     
   22253 H6        -306.9632   -74.9367   185.1207 H6            1 RES     
   22254 H6        -308.2652   -73.4001   183.6161 H6            1 RES     
   22255 H6        -307.5925   -74.1908   182.1406 H6            1 RES     
   22256 H6        -305.3228   -73.5162   182.6093 H6            1 RES     
   22257 H6        -305.7947   -72.6700   184.1300 H6            1 RES     
   22258 H6        -306.9910   -70.9491   182.8213 H6            1 RES     
   22259 H6        -306.7036   -71.8569   181.2823 H6            1 RES     
   22260 H6        -304.2463   -71.6567   181.5427 H6            1 RES     
   22261 H6        -304.4418   -70.7924   183.1123 H6            1 RES     
   22262 H6        -305.5490   -68.8937   181.9482 H6            1 RES     
   22263 H6        -305.3922   -69.7616   180.3618 H6            1 RES     
   22264 H6        -303.9210   -69.2418   181.2615 H6            1 RES     
   22265 C0        -308.6187   -91.0382   188.9209 C0            1 RES     
   22266 C1        -308.9377   -90.9015   190.2431 C1            1 RES     
   22267 C1        -310.2509   -90.6869   190.4581 C1            1 RES     
   22268 C1        -310.9083   -90.5973   189.3445 C1            1 RES     
   22269 C1        -309.9954   -90.7464   188.1976 C1            1 RES     
   22270 C1        -310.2259   -89.3389   187.6684 C1            1 RES     
   22271 C1        -311.3310   -88.6772   188.1199 C1            1 RES     
   22272 S2        -312.4179   -89.7149   189.1554 S2            1 RES     
   22273 C1        -311.6010   -87.2042   187.8422 C1            1 RES     
   22274 C1        -310.9010   -86.5036   186.8161 C1            1 RES     
   22275 N3        -311.1188   -85.1779   186.5766 N3            1 RES     
   22276 C1        -311.9875   -84.4361   187.2994 C1            1 RES     
   22277 C1        -312.6913   -85.0443   188.3313 C1            1 RES     
   22278 C1        -312.5067   -86.4343   188.6024 C1            1 RES     
   22279 N3        -313.2431   -86.9113   189.6454 N3            1 RES     
   22280 S2        -314.0767   -85.5717   190.1504 S2            1 RES     
   22281 N3        -313.5651   -84.3807   189.1269 N3            1 RES     
   22282 S2        -310.6314   -90.3921   192.0611 S2            1 RES     
   22283 C1        -309.0182   -90.5590   192.5482 C1            1 RES     
   22284 C1        -308.2019   -90.7943   191.4352 C1            1 RES     
   22285 C0        -308.0377   -92.5226   188.7378 C0            1 RES     
   22286 C0        -307.8554   -93.9403   189.4805 C0            1 RES     
   22287 C0        -307.2136   -93.8985   190.9031 C0            1 RES     
   22288 C0        -308.1474   -94.5270   191.9548 C0            1 RES     
   22289 C0        -307.6678   -94.3555   193.4075 C0            1 RES     
   22290 C0        -308.6158   -95.1173   194.3532 C0            1 RES     
   22291 C0        -308.3343   -94.8402   195.8352 C0            1 RES     
   22292 C0        -309.2816   -95.6505   196.7230 C0            1 RES     
   22293 C0        -306.9460   -94.7980   188.4925 C0            1 RES     
   22294 C0        -306.4365   -96.2576   188.7085 C0            1 RES     
   22295 C0        -305.1524   -96.4535   189.5717 C0            1 RES     
   22296 C0        -304.3585   -97.7234   189.1364 C0            1 RES     
   22297 C0        -303.0237   -97.9077   189.8878 C0            1 RES     
   22298 C0        -302.0061   -98.8235   189.1589 C0            1 RES     
   22299 C0        -302.4857  -100.2541   188.8733 C0            1 RES     
   22300 C0        -301.3783  -101.0700   188.1923 C0            1 RES     
   22301 C0        -307.3677   -90.1401   188.4721 C0            1 RES     
   22302 C0        -306.5572   -90.2013   187.0488 C0            1 RES     
   22303 C0        -305.8859   -91.6068   186.7752 C0            1 RES     
   22304 C0        -304.8416   -91.7315   185.6705 C0            1 RES     
   22305 C0        -304.1260   -93.0918   185.5862 C0            1 RES     
   22306 C0        -305.0250   -94.2157   185.0303 C0            1 RES     
   22307 C0        -304.2058   -95.3913   184.4676 C0            1 RES     
   22308 C0        -303.4283   -96.1595   185.5223 C0            1 RES     
   22309 C0        -307.1909   -89.5414   185.7406 C0            1 RES     
   22310 C0        -306.0825   -88.9273   184.8034 C0            1 RES     
   22311 C0        -306.3851   -88.0731   183.5414 C0            1 RES     
   22312 C0        -306.6097   -88.7928   182.1712 C0            1 RES     
   22313 C0        -306.0519   -87.8803   181.0348 C0            1 RES     
   22314 C0        -306.1454   -88.4079   179.5867 C0            1 RES     
   22315 C0        -305.3143   -87.4892   178.6561 C0            1 RES     
   22316 C0        -305.3845   -87.8857   177.1822 C0            1 RES     
   22317 H4        -309.5118   -88.8612   187.0501 H4            1 RES     
   22318 H5        -310.1919   -87.0115   186.1829 H5            1 RES     
   22319 H4        -307.1278   -90.8527   191.5134 H4            1 RES     
   22320 H6        -308.4580   -92.8135   187.7513 H6            1 RES     
   22321 H6        -306.9766   -92.3749   188.7349 H6            1 RES     
   22322 H6        -308.8479   -94.4383   189.5431 H6            1 RES     
   22323 H6        -306.2436   -94.4261   190.9365 H6            1 RES     
   22324 H6        -306.9330   -92.8859   191.1685 H6            1 RES     
   22325 H6        -309.1492   -94.0493   191.8812 H6            1 RES     
   22326 H6        -308.2469   -95.6093   191.7180 H6            1 RES     
   22327 H6        -306.6336   -94.7441   193.5369 H6            1 RES     
   22328 H6        -307.6750   -93.2707   193.6540 H6            1 RES     
   22329 H6        -308.5148   -96.2075   194.1520 H6            1 RES     
   22330 H6        -309.6653   -94.8141   194.1459 H6            1 RES     
   22331 H6        -307.2860   -95.1056   196.0902 H6            1 RES     
   22332 H6        -308.4909   -93.7583   196.0401 H6            1 RES     
   22333 H6        -310.3407   -95.4119   196.4843 H6            1 RES     
   22334 H6        -309.1153   -96.7387   196.5707 H6            1 RES     
   22335 H6        -309.0995   -95.4112   197.7918 H6            1 RES     
   22336 H6        -307.5396   -94.8493   187.5534 H6            1 RES     
   22337 H6        -306.0231   -94.2239   188.2535 H6            1 RES     
   22338 H6        -307.2440   -96.9664   188.9815 H6            1 RES     
   22339 H6        -306.1112   -96.5358   187.6809 H6            1 RES     
   22340 H6        -304.4670   -95.5959   189.3856 H6            1 RES     
   22341 H6        -305.3996   -96.4837   190.6523 H6            1 RES     
   22342 H6        -304.9744   -98.6428   189.2281 H6            1 RES     
   22343 H6        -304.1001   -97.5977   188.0742 H6            1 RES     
   22344 H6        -302.5151   -96.9218   189.9667 H6            1 RES     
   22345 H6        -303.2248   -98.2728   190.9173 H6            1 RES     
   22346 H6        -301.0862   -98.8741   189.7827 H6            1 RES     
   22347 H6        -301.7296   -98.3491   188.1907 H6            1 RES     
   22348 H6        -303.3656  -100.2259   188.1964 H6            1 RES     
   22349 H6        -302.7695  -100.7567   189.8211 H6            1 RES     
   22350 H6        -300.4882  -101.1477   188.8535 H6            1 RES     
   22351 H6        -301.0704  -100.5966   187.2346 H6            1 RES     
   22352 H6        -301.7412  -102.0967   187.9730 H6            1 RES     
   22353 H6        -307.6569   -89.0781   188.6312 H6            1 RES     
   22354 H6        -306.5685   -90.3207   189.2270 H6            1 RES     
   22355 H6        -305.7167   -89.5156   187.2916 H6            1 RES     
   22356 H6        -306.6659   -92.3561   186.5420 H6            1 RES     
   22357 H6        -305.3112   -91.8683   187.6895 H6            1 RES     
   22358 H6        -305.3233   -91.6069   184.6847 H6            1 RES     
   22359 H6        -304.0667   -90.9574   185.8597 H6            1 RES     
   22360 H6        -303.3071   -92.9359   184.8524 H6            1 RES     
   22361 H6        -303.6636   -93.3760   186.5577 H6            1 RES     
   22362 H6        -305.5899   -93.8166   184.1613 H6            1 RES     
   22363 H6        -305.7623   -94.5541   185.7884 H6            1 RES     
   22364 H6        -303.4983   -95.0081   183.7004 H6            1 RES     
   22365 H6        -304.8983   -96.1026   183.9677 H6            1 RES     
   22366 H6        -302.8548   -96.9787   185.0379 H6            1 RES     
   22367 H6        -304.1542   -96.6012   186.2197 H6            1 RES     
   22368 H6        -302.7172   -95.5065   186.0685 H6            1 RES     
   22369 H6        -307.8862   -90.2400   185.2258 H6            1 RES     
   22370 H6        -307.7437   -88.6364   186.0405 H6            1 RES     
   22371 H6        -305.5362   -88.2320   185.4766 H6            1 RES     
   22372 H6        -305.3303   -89.6265   184.4538 H6            1 RES     
   22373 H6        -305.4083   -87.5541   183.4150 H6            1 RES     
   22374 H6        -307.1286   -87.2689   183.7195 H6            1 RES     
   22375 H6        -307.6828   -89.0472   182.0310 H6            1 RES     
   22376 H6        -306.0167   -89.7324   182.1293 H6            1 RES     
   22377 H6        -304.9668   -87.7461   181.2468 H6            1 RES     
   22378 H6        -306.5407   -86.8832   181.0755 H6            1 RES     
   22379 H6        -307.2090   -88.4258   179.2648 H6            1 RES     
   22380 H6        -305.7301   -89.4370   179.5207 H6            1 RES     
   22381 H6        -304.2463   -87.5290   178.9690 H6            1 RES     
   22382 H6        -305.6639   -86.4380   178.7465 H6            1 RES     
   22383 H6        -306.4241   -87.7939   176.8050 H6            1 RES     
   22384 H6        -305.0221   -88.9240   177.0322 H6            1 RES     
   22385 H6        -304.7372   -87.2019   176.5880 H6            1 RES     
   22386 C0        -304.6776   -87.7241   200.1580 C0            1 RES     
   22387 C1        -305.7615   -86.9858   200.5439 C1            1 RES     
   22388 C1        -306.8900   -87.7130   200.6638 C1            1 RES     
   22389 C1        -306.6998   -88.9489   200.3222 C1            1 RES     
   22390 C1        -305.3039   -89.1537   199.8974 C1            1 RES     
   22391 C1        -305.6595   -89.5134   198.4627 C1            1 RES     
   22392 C1        -306.9525   -89.8724   198.2131 C1            1 RES     
   22393 S2        -307.9641   -90.0158   199.7252 S2            1 RES     
   22394 C1        -307.5142   -90.0720   196.8115 C1            1 RES     
   22395 C1        -306.6544   -90.2313   195.6850 C1            1 RES     
   22396 N3        -307.1485   -90.3862   194.4224 N3            1 RES     
   22397 C1        -308.4722   -90.3787   194.1480 C1            1 RES     
   22398 C1        -309.3723   -90.2061   195.1921 C1            1 RES     
   22399 C1        -308.8969   -90.0598   196.5308 C1            1 RES     
   22400 N3        -309.8749   -89.8855   197.4640 N3            1 RES     
   22401 S2        -311.2609   -89.9339   196.5579 S2            1 RES     
   22402 N3        -310.7153   -90.1601   195.0156 N3            1 RES     
   22403 S2        -308.2471   -86.7973   201.0117 S2            1 RES     
   22404 C1        -307.3569   -85.3571   201.0324 C1            1 RES     
   22405 C1        -306.0174   -85.6152   200.7165 C1            1 RES     
   22406 C0        -303.6120   -87.6392   201.3546 C0            1 RES     
   22407 C0        -303.4171   -87.1621   202.8807 C0            1 RES     
   22408 C0        -303.8561   -85.7004   203.2100 C0            1 RES     
   22409 C0        -304.9215   -85.6753   204.3222 C0            1 RES     
   22410 C0        -305.5400   -84.2880   204.5724 C0            1 RES     
   22411 C0        -306.5012   -84.3649   205.7740 C0            1 RES     
   22412 C0        -307.3152   -83.0804   205.9737 C0            1 RES     
   22413 C0        -308.2225   -83.2041   207.1999 C0            1 RES     
   22414 C0        -301.8598   -87.3449   203.1635 C0            1 RES     
   22415 C0        -301.0979   -87.0220   204.4872 C0            1 RES     
   22416 C0        -300.6575   -85.5449   204.7246 C0            1 RES     
   22417 C0        -299.3676   -85.4656   205.5977 C0            1 RES     
   22418 C0        -298.8275   -84.0315   205.7767 C0            1 RES     
   22419 C0        -297.3320   -83.9624   206.1817 C0            1 RES     
   22420 C0        -296.9645   -84.6764   207.4906 C0            1 RES     
   22421 C0        -295.4724   -84.4986   207.8033 C0            1 RES     
   22422 C0        -303.8595   -87.0670   198.9448 C0            1 RES     
   22423 C0        -302.3981   -87.5284   198.3634 C0            1 RES     
   22424 C0        -301.2430   -87.4356   199.4396 C0            1 RES     
   22425 C0        -299.7902   -87.5166   198.9823 C0            1 RES     
   22426 C0        -298.7369   -87.2527   200.0734 C0            1 RES     
   22427 C0        -298.6099   -88.4105   201.0852 C0            1 RES     
   22428 C0        -297.2590   -88.3926   201.8233 C0            1 RES     
   22429 C0        -297.0790   -87.2007   202.7474 C0            1 RES     
   22430 C0        -302.2824   -88.8150   197.4255 C0            1 RES     
   22431 C0        -301.1598   -88.6398   196.3332 C0            1 RES     
   22432 C0        -300.9127   -89.6404   195.1708 C0            1 RES     
   22433 C0        -299.9644   -90.8616   195.4063 C0            1 RES     
   22434 C0        -299.2145   -91.1710   194.0732 C0            1 RES     
   22435 C0        -298.1976   -92.3330   194.0809 C0            1 RES     
   22436 C0        -297.3852   -92.3064   192.7618 C0            1 RES     
   22437 C0        -296.3846   -93.4542   192.6355 C0            1 RES     
   22438 H4        -304.9577   -89.4005   197.6784 H4            1 RES     
   22439 H5        -305.5835   -90.2561   195.8043 H5            1 RES     
   22440 H4        -305.2934   -84.8249   200.5976 H4            1 RES     
   22441 H6        -303.1938   -88.6685   201.3629 H6            1 RES     
   22442 H6        -302.9232   -86.8898   201.0204 H6            1 RES     
   22443 H6        -303.9654   -87.8655   203.5452 H6            1 RES     
   22444 H6        -303.0041   -85.0727   203.5271 H6            1 RES     
   22445 H6        -304.1961   -85.1907   202.3160 H6            1 RES     
   22446 H6        -305.7525   -86.3599   204.0432 H6            1 RES     
   22447 H6        -304.4468   -86.0483   205.2566 H6            1 RES     
   22448 H6        -304.7534   -83.5302   204.7825 H6            1 RES     
   22449 H6        -306.0962   -83.9815   203.6590 H6            1 RES     
   22450 H6        -305.9054   -84.5751   206.6904 H6            1 RES     
   22451 H6        -307.2194   -85.1995   205.6187 H6            1 RES     
   22452 H6        -306.6411   -82.2079   206.1107 H6            1 RES     
   22453 H6        -307.9491   -82.9071   205.0764 H6            1 RES     
   22454 H6        -308.9043   -84.0758   207.0952 H6            1 RES     
   22455 H6        -307.6117   -83.3341   208.1191 H6            1 RES     
   22456 H6        -308.8387   -82.2872   207.3115 H6            1 RES     
   22457 H6        -301.6800   -88.4301   202.9997 H6            1 RES     
   22458 H6        -301.2801   -86.8056   202.3815 H6            1 RES     
   22459 H6        -301.5681   -87.4743   205.3835 H6            1 RES     
   22460 H6        -300.1381   -87.5640   204.3313 H6            1 RES     
   22461 H6        -300.3807   -85.0965   203.7436 H6            1 RES     
   22462 H6        -301.4815   -84.9499   205.1682 H6            1 RES     
   22463 H6        -299.5152   -85.9410   206.5904 H6            1 RES     
   22464 H6        -298.5823   -86.0278   205.0703 H6            1 RES     
   22465 H6        -298.8840   -83.5005   204.8012 H6            1 RES     
   22466 H6        -299.4645   -83.4831   206.5027 H6            1 RES     
   22467 H6        -297.0529   -82.8891   206.2709 H6            1 RES     
   22468 H6        -296.7202   -84.4015   205.3619 H6            1 RES     
   22469 H6        -297.1748   -85.7627   207.3964 H6            1 RES     
   22470 H6        -297.5584   -84.2605   208.3307 H6            1 RES     
   22471 H6        -295.2271   -83.4226   207.9358 H6            1 RES     
   22472 H6        -294.8448   -84.9086   206.9822 H6            1 RES     
   22473 H6        -295.2130   -85.0340   208.7413 H6            1 RES     
   22474 H6        -304.5507   -87.0204   198.0748 H6            1 RES     
   22475 H6        -303.6971   -86.0000   199.2210 H6            1 RES     
   22476 H6        -302.2125   -86.6889   197.6588 H6            1 RES     
   22477 H6        -301.3689   -88.2344   200.1948 H6            1 RES     
   22478 H6        -301.3055   -86.4203   199.8866 H6            1 RES     
   22479 H6        -299.5685   -88.5357   198.6196 H6            1 RES     
   22480 H6        -299.6502   -86.7495   198.1901 H6            1 RES     
   22481 H6        -297.7724   -87.1900   199.5265 H6            1 RES     
   22482 H6        -298.9044   -86.2771   200.5818 H6            1 RES     
   22483 H6        -298.6192   -89.3695   200.5252 H6            1 RES     
   22484 H6        -299.4650   -88.4224   201.7935 H6            1 RES     
   22485 H6        -296.4357   -88.4022   201.0763 H6            1 RES     
   22486 H6        -297.1742   -89.3161   202.4360 H6            1 RES     
   22487 H6        -296.0792   -87.2521   203.2296 H6            1 RES     
   22488 H6        -297.8509   -87.2609   203.5278 H6            1 RES     
   22489 H6        -297.1576   -86.2387   202.2008 H6            1 RES     
   22490 H6        -302.1951   -89.7495   198.0220 H6            1 RES     
   22491 H6        -303.1862   -88.8699   196.7973 H6            1 RES     
   22492 H6        -301.4471   -87.6959   195.8218 H6            1 RES     
   22493 H6        -300.1621   -88.4568   196.7178 H6            1 RES     
   22494 H6        -300.3440   -88.9907   194.4680 H6            1 RES     
   22495 H6        -301.8379   -89.9265   194.6291 H6            1 RES     
   22496 H6        -300.5345   -91.7345   195.7920 H6            1 RES     
   22497 H6        -299.1779   -90.5995   196.1472 H6            1 RES     
   22498 H6        -298.6356   -90.2538   193.8206 H6            1 RES     
   22499 H6        -299.9487   -91.3548   193.2596 H6            1 RES     
   22500 H6        -298.7369   -93.2992   194.1848 H6            1 RES     
   22501 H6        -297.4875   -92.2221   194.9290 H6            1 RES     
   22502 H6        -296.8161   -91.3509   192.7071 H6            1 RES     
   22503 H6        -298.0725   -92.3518   191.8895 H6            1 RES     
   22504 H6        -296.9137   -94.4295   192.6149 H6            1 RES     
   22505 H6        -295.6566   -93.4409   193.4732 H6            1 RES     
   22506 H6        -295.8202   -93.3445   191.6820 H6            1 RES     
   22507 C0        -310.0337   -76.5843   200.2199 C0            1 RES     
   22508 C1        -311.2998   -76.9656   199.8733 C1            1 RES     
   22509 C1        -311.8938   -77.7510   200.7937 C1            1 RES     
   22510 C1        -311.0957   -78.0177   201.7798 C1            1 RES     
   22511 C1        -309.7844   -77.3816   201.5637 C1            1 RES     
   22512 C1        -309.0209   -78.6941   201.4699 C1            1 RES     
   22513 C1        -309.6390   -79.8100   201.9554 C1            1 RES     
   22514 S2        -311.2199   -79.4499   202.7930 S2            1 RES     
   22515 C1        -309.0987   -81.2211   201.7638 C1            1 RES     
   22516 C1        -307.7487   -81.4493   201.3652 C1            1 RES     
   22517 N3        -307.2629   -82.7092   201.1675 N3            1 RES     
   22518 C1        -308.0224   -83.8180   201.3125 C1            1 RES     
   22519 C1        -309.3550   -83.6747   201.6782 C1            1 RES     
   22520 C1        -309.8975   -82.3746   201.9133 C1            1 RES     
   22521 N3        -311.2171   -82.3638   202.2540 N3            1 RES     
   22522 S2        -311.6124   -83.9726   202.2459 S2            1 RES     
   22523 N3        -310.2023   -84.7223   201.8248 N3            1 RES     
   22524 S2        -313.3930   -78.3260   200.3215 S2            1 RES     
   22525 C1        -313.3147   -77.5158   198.8367 C1            1 RES     
   22526 C1        -312.0899   -76.8478   198.7175 C1            1 RES     
   22527 C0        -310.0538   -74.9854   200.3533 C0            1 RES     
   22528 C0        -311.0290   -73.7043   200.4000 C0            1 RES     
   22529 C0        -312.0766   -73.5898   199.2480 C0            1 RES     
   22530 C0        -313.5121   -73.5306   199.8034 C0            1 RES     
   22531 C0        -314.6092   -73.6059   198.7263 C0            1 RES     
   22532 C0        -315.9891   -73.4239   199.3870 C0            1 RES     
   22533 C0        -317.1539   -73.6829   198.4234 C0            1 RES     
   22534 C0        -318.4940   -73.4520   199.1256 C0            1 RES     
   22535 C0        -310.0467   -72.4500   200.3759 C0            1 RES     
   22536 C0        -310.4448   -70.9406   200.3900 C0            1 RES     
   22537 C0        -310.8272   -70.2822   199.0290 C0            1 RES     
   22538 C0        -310.4903   -68.7594   199.0152 C0            1 RES     
   22539 C0        -310.7514   -68.0792   197.6552 C0            1 RES     
   22540 C0        -309.9801   -66.7491   197.4524 C0            1 RES     
   22541 C0        -310.2623   -65.6525   198.4898 C0            1 RES     
   22542 C0        -309.4769   -64.3769   198.1559 C0            1 RES     
   22543 C0        -308.9606   -76.8008   199.0473 C0            1 RES     
   22544 C0        -307.4130   -76.2631   199.0018 C0            1 RES     
   22545 C0        -307.2997   -74.6872   199.0701 C0            1 RES     
   22546 C0        -305.9743   -74.0193   198.7183 C0            1 RES     
   22547 C0        -306.0044   -72.4817   198.6531 C0            1 RES     
   22548 C0        -306.1089   -71.8185   200.0422 C0            1 RES     
   22549 C0        -305.6239   -70.3575   200.0274 C0            1 RES     
   22550 C0        -306.5041   -69.4257   199.2124 C0            1 RES     
   22551 C0        -306.2827   -77.0123   199.8443 C0            1 RES     
   22552 C0        -304.8934   -76.9926   199.1005 C0            1 RES     
   22553 C0        -303.6391   -77.7752   199.5783 C0            1 RES     
   22554 C0        -302.6706   -77.1054   200.6075 C0            1 RES     
   22555 C0        -301.2153   -77.5754   200.2969 C0            1 RES     
   22556 C0        -300.0810   -77.0132   201.1809 C0            1 RES     
   22557 C0        -298.7145   -77.3880   200.5539 C0            1 RES     
   22558 C0        -297.5147   -76.9305   201.3821 C0            1 RES     
   22559 H4        -308.0914   -78.7536   200.9672 H4            1 RES     
   22560 H5        -307.0643   -80.6277   201.2299 H5            1 RES     
   22561 H4        -311.8024   -76.3333   197.8143 H4            1 RES     
   22562 H6        -309.3871   -74.8196   201.2264 H6            1 RES     
   22563 H6        -309.6440   -74.6537   199.4206 H6            1 RES     
   22564 H6        -311.5601   -73.6979   201.3772 H6            1 RES     
   22565 H6        -311.9071   -72.6968   198.6201 H6            1 RES     
   22566 H6        -311.9541   -74.3975   198.5357 H6            1 RES     
   22567 H6        -313.6693   -74.3892   200.4929 H6            1 RES     
   22568 H6        -313.6156   -72.5841   200.3787 H6            1 RES     
   22569 H6        -314.4678   -72.8179   197.9540 H6            1 RES     
   22570 H6        -314.5510   -74.6021   198.2346 H6            1 RES     
   22571 H6        -316.0569   -72.3860   199.7835 H6            1 RES     
   22572 H6        -316.0879   -74.1351   200.2359 H6            1 RES     
   22573 H6        -317.0886   -73.0104   197.5414 H6            1 RES     
   22574 H6        -317.1108   -74.7381   198.0744 H6            1 RES     
   22575 H6        -318.5847   -74.1068   200.0193 H6            1 RES     
   22576 H6        -318.5826   -72.3917   199.4465 H6            1 RES     
   22577 H6        -319.3310   -73.6832   198.4338 H6            1 RES     
   22578 H6        -309.4205   -72.5785   201.2859 H6            1 RES     
   22579 H6        -309.3612   -72.5388   199.5038 H6            1 RES     
   22580 H6        -311.1560   -70.6839   201.2007 H6            1 RES     
   22581 H6        -309.4787   -70.4565   200.6576 H6            1 RES     
   22582 H6        -310.1979   -70.7334   198.2288 H6            1 RES     
   22583 H6        -311.8943   -70.4609   198.7859 H6            1 RES     
   22584 H6        -311.0266   -68.2141   199.8202 H6            1 RES     
   22585 H6        -309.4110   -68.6630   199.2065 H6            1 RES     
   22586 H6        -310.3887   -68.7464   196.8427 H6            1 RES     
   22587 H6        -311.8438   -67.9335   197.5170 H6            1 RES     
   22588 H6        -310.2355   -66.3582   196.4425 H6            1 RES     
   22589 H6        -308.8882   -66.9652   197.4625 H6            1 RES     
   22590 H6        -309.9510   -66.0011   199.4972 H6            1 RES     
   22591 H6        -311.3457   -65.4125   198.5046 H6            1 RES     
   22592 H6        -309.7835   -63.9782   197.1646 H6            1 RES     
   22593 H6        -308.3839   -64.5794   198.1358 H6            1 RES     
   22594 H6        -309.6731   -63.5968   198.9219 H6            1 RES     
   22595 H6        -308.9275   -77.8919   198.8351 H6            1 RES     
   22596 H6        -309.4099   -76.3582   198.1290 H6            1 RES     
   22597 H6        -307.1609   -76.5314   197.9530 H6            1 RES     
   22598 H6        -307.5560   -74.3364   200.0877 H6            1 RES     
   22599 H6        -307.9917   -74.2848   198.2996 H6            1 RES     
   22600 H6        -305.2212   -74.2522   199.4916 H6            1 RES     
   22601 H6        -305.6737   -74.3906   197.7146 H6            1 RES     
   22602 H6        -305.0182   -72.1970   198.2290 H6            1 RES     
   22603 H6        -306.7928   -72.1131   197.9596 H6            1 RES     
   22604 H6        -305.4185   -72.3439   200.7355 H6            1 RES     
   22605 H6        -307.1362   -71.9063   200.4544 H6            1 RES     
   22606 H6        -304.5872   -70.3220   199.6276 H6            1 RES     
   22607 H6        -305.5997   -69.9784   201.0720 H6            1 RES     
   22608 H6        -306.0820   -68.3981   199.2392 H6            1 RES     
   22609 H6        -307.4997   -69.4107   199.6784 H6            1 RES     
   22610 H6        -306.5787   -69.7487   198.1539 H6            1 RES     
   22611 H6        -306.2427   -76.6443   200.8930 H6            1 RES     
   22612 H6        -306.5090   -78.0908   199.8477 H6            1 RES     
   22613 H6        -305.1287   -77.4370   198.1095 H6            1 RES     
   22614 H6        -304.4994   -76.0066   198.8782 H6            1 RES     
   22615 H6        -303.0506   -77.8014   198.6337 H6            1 RES     
   22616 H6        -303.8482   -78.8359   199.8283 H6            1 RES     
   22617 H6        -302.9835   -77.3340   201.6494 H6            1 RES     
   22618 H6        -302.6717   -76.0016   200.4736 H6            1 RES     
   22619 H6        -300.9942   -77.2405   199.2581 H6            1 RES     
   22620 H6        -301.1619   -78.6851   200.3241 H6            1 RES     
   22621 H6        -300.1652   -77.4328   202.2065 H6            1 RES     
   22622 H6        -300.1456   -75.9048   201.2371 H6            1 RES     
   22623 H6        -298.6356   -76.9140   199.5495 H6            1 RES     
   22624 H6        -298.6434   -78.4897   200.4249 H6            1 RES     
   22625 H6        -297.5121   -77.4329   202.3715 H6            1 RES     
   22626 H6        -297.5243   -75.8294   201.5212 H6            1 RES     
   22627 H6        -296.5763   -77.2059   200.8498 H6            1 RES     
   22628 C0        -317.9220   -78.8441   190.9757 C0            1 RES     
   22629 C1        -318.4537   -80.0134   191.4435 C1            1 RES     
   22630 C1        -319.1434   -79.8667   192.5923 C1            1 RES     
   22631 C1        -319.0918   -78.6466   193.0272 C1            1 RES     
   22632 C1        -318.2776   -77.8149   192.1238 C1            1 RES     
   22633 C1        -317.2026   -77.5187   193.1586 C1            1 RES     
   22634 C1        -317.5206   -77.7399   194.4674 C1            1 RES     
   22635 S2        -319.2715   -78.1904   194.7162 S2            1 RES     
   22636 C1        -316.5053   -77.6799   195.6012 C1            1 RES     
   22637 C1        -315.2334   -77.0597   195.4242 C1            1 RES     
   22638 N3        -314.3083   -77.0228   196.4267 N3            1 RES     
   22639 C1        -314.5190   -77.5832   197.6387 C1            1 RES     
   22640 C1        -315.7272   -78.2254   197.8794 C1            1 RES     
   22641 C1        -316.7297   -78.2697   196.8632 C1            1 RES     
   22642 N3        -317.8647   -78.9374   197.2150 N3            1 RES     
   22643 S2        -317.5427   -79.4178   198.7674 S2            1 RES     
   22644 N3        -316.0228   -78.8375   199.0519 N3            1 RES     
   22645 S2        -319.6895   -81.3106   193.2388 S2            1 RES     
   22646 C1        -319.0235   -82.2123   191.9697 C1            1 RES     
   22647 C1        -318.3408   -81.3674   191.0862 C1            1 RES     
   22648 C0        -318.6074   -78.5627   189.5525 C0            1 RES     
   22649 C0        -319.7900   -79.0425   188.5696 C0            1 RES     
   22650 C0        -319.8580   -80.5722   188.2645 C0            1 RES     
   22651 C0        -321.2235   -81.1609   188.6668 C0            1 RES     
   22652 C0        -321.3021   -82.6952   188.5712 C0            1 RES     
   22653 C0        -322.7384   -83.1551   188.8860 C0            1 RES     
   22654 C0        -322.8662   -84.6784   189.0112 C0            1 RES     
   22655 C0        -324.3182   -85.0751   189.2878 C0            1 RES     
   22656 C0        -319.5513   -78.2239   187.2236 C0            1 RES     
   22657 C0        -320.3947   -78.2996   185.9122 C0            1 RES     
   22658 C0        -320.0704   -79.4506   184.9110 C0            1 RES     
   22659 C0        -320.3880   -79.0368   183.4411 C0            1 RES     
   22660 C0        -319.9877   -80.1004   182.3976 C0            1 RES     
   22661 C0        -319.8149   -79.5453   180.9598 C0            1 RES     
   22662 C0        -321.0523   -78.8641   180.3574 C0            1 RES     
   22663 C0        -320.7692   -78.3995   178.9222 C0            1 RES     
   22664 C0        -316.3736   -78.9650   190.5744 C0            1 RES     
   22665 C0        -315.4625   -77.8609   189.7761 C0            1 RES     
   22666 C0        -316.0063   -77.5365   188.3269 C0            1 RES     
   22667 C0        -315.1108   -76.7878   187.3451 C0            1 RES     
   22668 C0        -315.6588   -76.6623   185.9122 C0            1 RES     
   22669 C0        -316.8279   -75.6622   185.7963 C0            1 RES     
   22670 C0        -317.0186   -75.1547   184.3555 C0            1 RES     
   22671 C0        -317.4778   -76.2262   183.3818 C0            1 RES     
   22672 C0        -314.9129   -76.5741   190.5445 C0            1 RES     
   22673 C0        -313.4934   -76.1415   190.0138 C0            1 RES     
   22674 C0        -312.6213   -75.0329   190.6651 C0            1 RES     
   22675 C0        -312.8223   -73.5470   190.2205 C0            1 RES     
   22676 C0        -311.4417   -72.8218   190.2768 C0            1 RES     
   22677 C0        -311.3982   -71.3383   189.8508 C0            1 RES     
   22678 C0        -309.9208   -70.8878   189.7276 C0            1 RES     
   22679 C0        -309.7587   -69.4119   189.3667 C0            1 RES     
   22680 H4        -316.2229   -77.2421   192.8687 H4            1 RES     
   22681 H5        -314.9752   -76.5804   194.4940 H5            1 RES     
   22682 H4        -317.7761   -81.7475   190.2497 H4            1 RES     
   22683 H6        -318.7379   -77.4596   189.5748 H6            1 RES     
   22684 H6        -317.8717   -78.9021   188.8515 H6            1 RES     
   22685 H6        -320.7624   -78.7127   188.9970 H6            1 RES     
   22686 H6        -319.6840   -80.7903   187.1956 H6            1 RES     
   22687 H6        -319.0380   -81.0960   188.7418 H6            1 RES     
   22688 H6        -321.4394   -80.8861   189.7228 H6            1 RES     
   22689 H6        -321.9974   -80.7041   188.0111 H6            1 RES     
   22690 H6        -321.0205   -83.0487   187.5548 H6            1 RES     
   22691 H6        -320.5927   -83.1300   189.3097 H6            1 RES     
   22692 H6        -323.4116   -82.7895   188.0784 H6            1 RES     
   22693 H6        -323.0656   -82.7080   189.8501 H6            1 RES     
   22694 H6        -322.5280   -85.1770   188.0777 H6            1 RES     
   22695 H6        -322.2331   -85.0294   189.8556 H6            1 RES     
   22696 H6        -324.6880   -84.5834   190.2137 H6            1 RES     
   22697 H6        -324.9678   -84.7750   188.4376 H6            1 RES     
   22698 H6        -324.3938   -86.1750   189.4195 H6            1 RES     
   22699 H6        -319.6241   -77.1594   187.5372 H6            1 RES     
   22700 H6        -318.5049   -78.3825   186.8796 H6            1 RES     
   22701 H6        -321.4832   -78.1815   186.0854 H6            1 RES     
   22702 H6        -320.0621   -77.3811   185.3785 H6            1 RES     
   22703 H6        -318.9738   -79.6422   184.9357 H6            1 RES     
   22704 H6        -320.6012   -80.3832   185.1906 H6            1 RES     
   22705 H6        -321.4573   -78.7657   183.3140 H6            1 RES     
   22706 H6        -319.7866   -78.1429   183.2173 H6            1 RES     
   22707 H6        -318.9903   -80.5120   182.6666 H6            1 RES     
   22708 H6        -320.7200   -80.9352   182.4190 H6            1 RES     
   22709 H6        -319.5184   -80.3919   180.3016 H6            1 RES     
   22710 H6        -318.9784   -78.8109   180.9595 H6            1 RES     
   22711 H6        -321.3237   -77.9754   180.9653 H6            1 RES     
   22712 H6        -321.9070   -79.5719   180.3426 H6            1 RES     
   22713 H6        -320.5228   -79.2672   178.2726 H6            1 RES     
   22714 H6        -319.9184   -77.6841   178.8988 H6            1 RES     
   22715 H6        -321.6635   -77.8918   178.5024 H6            1 RES     
   22716 H6        -315.8181   -79.2300   191.5006 H6            1 RES     
   22717 H6        -316.2879   -79.8738   189.9359 H6            1 RES     
   22718 H6        -314.5445   -78.4673   189.6174 H6            1 RES     
   22719 H6        -316.9385   -76.9449   188.3998 H6            1 RES     
   22720 H6        -316.1660   -78.5128   187.8211 H6            1 RES     
   22721 H6        -314.9727   -75.7460   187.6845 H6            1 RES     
   22722 H6        -314.1486   -77.3414   187.2877 H6            1 RES     
   22723 H6        -314.8147   -76.2474   185.3216 H6            1 RES     
   22724 H6        -315.9206   -77.6546   185.4818 H6            1 RES     
   22725 H6        -316.5767   -74.7574   186.3892 H6            1 RES     
   22726 H6        -317.7660   -76.0893   186.2091 H6            1 RES     
   22727 H6        -316.0622   -74.7187   183.9933 H6            1 RES     
   22728 H6        -317.7818   -74.3466   184.3593 H6            1 RES     
   22729 H6        -317.5781   -75.7869   182.3661 H6            1 RES     
   22730 H6        -318.4646   -76.5802   183.7124 H6            1 RES     
   22731 H6        -316.7619   -77.0720   183.3309 H6            1 RES     
   22732 H6        -315.6634   -75.7536   190.5571 H6            1 RES     
   22733 H6        -314.6754   -76.8631   191.5812 H6            1 RES     
   22734 H6        -312.8865   -77.0655   190.1276 H6            1 RES     
   22735 H6        -313.4454   -75.9041   188.9563 H6            1 RES     
   22736 H6        -311.6213   -75.3023   190.2565 H6            1 RES     
   22737 H6        -312.5294   -75.1323   191.7664 H6            1 RES     
   22738 H6        -313.5953   -73.0499   190.8458 H6            1 RES     
   22739 H6        -313.1480   -73.5048   189.1583 H6            1 RES     
   22740 H6        -310.7739   -73.3669   189.5717 H6            1 RES     
   22741 H6        -311.0118   -72.9046   191.2982 H6            1 RES     
   22742 H6        -311.9310   -70.7187   190.6040 H6            1 RES     
   22743 H6        -311.8865   -71.2040   188.8612 H6            1 RES     
   22744 H6        -309.4247   -71.4892   188.9325 H6            1 RES     
   22745 H6        -309.3857   -71.0686   190.6848 H6            1 RES     
   22746 H6        -310.1781   -68.7685   190.1677 H6            1 RES     
   22747 H6        -310.2567   -69.1815   188.4020 H6            1 RES     
   22748 H6        -308.6751   -69.1772   189.2639 H6            1 RES     
   22749 C0        -316.9346   -91.1594   191.3583 C0            1 RES     
   22750 C1        -317.1618   -91.3401   192.6942 C1            1 RES     
   22751 C1        -318.4019   -90.9801   193.0804 C1            1 RES     
   22752 C1        -319.0824   -90.4818   192.0959 C1            1 RES     
   22753 C1        -318.2663   -90.4585   190.8694 C1            1 RES     
   22754 C1        -318.2587   -88.9418   190.7511 C1            1 RES     
   22755 C1        -319.2016   -88.2572   191.4619 C1            1 RES     
   22756 S2        -320.4115   -89.3460   192.2872 S2            1 RES     
   22757 C1        -319.2092   -86.7410   191.6061 C1            1 RES     
   22758 C1        -318.4406   -85.9107   190.7380 C1            1 RES     
   22759 N3        -318.4222   -84.5531   190.8753 N3            1 RES     
   22760 C1        -319.1058   -83.9058   191.8455 C1            1 RES     
   22761 C1        -319.8608   -84.6495   192.7438 C1            1 RES     
   22762 C1        -319.9221   -86.0712   192.6230 C1            1 RES     
   22763 N3        -320.6846   -86.6884   193.5692 N3            1 RES     
   22764 S2        -321.2341   -85.4207   194.4833 S2            1 RES     
   22765 N3        -320.5604   -84.0955   193.7638 N3            1 RES     
   22766 S2        -318.6474   -91.0779   194.7331 S2            1 RES     
   22767 C1        -317.0716   -91.6345   195.0054 C1            1 RES     
   22768 C1        -316.3645   -91.6862   193.7980 C1            1 RES     
   22769 C0        -316.6450   -92.6111   190.7392 C0            1 RES     
   22770 C0        -316.6919   -94.1880   191.0645 C0            1 RES     
   22771 C0        -315.9884   -94.6440   192.3815 C0            1 RES     
   22772 C0        -316.9721   -95.3746   193.3151 C0            1 RES     
   22773 C0        -316.4026   -95.6892   194.7102 C0            1 RES     
   22774 C0        -317.4297   -96.5148   195.5084 C0            1 RES     
   22775 C0        -317.0340   -96.7049   196.9780 C0            1 RES     
   22776 C0        -318.0720   -97.5606   197.7078 C0            1 RES     
   22777 C0        -316.0019   -94.8791   189.8055 C0            1 RES     
   22778 C0        -315.7595   -96.4050   189.5830 C0            1 RES     
   22779 C0        -314.4948   -97.0382   190.2401 C0            1 RES     
   22780 C0        -313.9683   -98.2525   189.4148 C0            1 RES     
   22781 C0        -312.6567   -98.8523   189.9629 C0            1 RES     
   22782 C0        -311.8593   -99.6873   188.9274 C0            1 RES     
   22783 C0        -312.6059  -100.8857   188.3237 C0            1 RES     
   22784 C0        -311.6997  -101.6539   187.3519 C0            1 RES     
   22785 C0        -315.5621   -90.3907   191.0446 C0            1 RES     
   22786 C0        -314.8432   -90.1915   189.5852 C0            1 RES     
   22787 C0        -314.4545   -91.5584   188.8914 C0            1 RES     
   22788 C0        -313.5030   -91.5451   187.6994 C0            1 RES     
   22789 C0        -313.0539   -92.9284   187.1951 C0            1 RES     
   22790 C0        -314.1685   -93.6932   186.4515 C0            1 RES     
   22791 C0        -313.6058   -94.7873   185.5263 C0            1 RES     
   22792 C0        -312.9347   -95.9321   186.2653 C0            1 RES     
   22793 C0        -315.4046   -89.1033   188.5609 C0            1 RES     
   22794 C0        -314.2469   -88.4464   187.7171 C0            1 RES     
   22795 C0        -314.4455   -87.2413   186.7570 C0            1 RES     
   22796 C0        -314.8613   -87.5105   185.2736 C0            1 RES     
   22797 C0        -314.1985   -86.4258   184.3684 C0            1 RES     
   22798 C0        -314.4540   -86.5132   182.8481 C0            1 RES     
   22799 C0        -313.5122   -85.5240   182.1165 C0            1 RES     
   22800 C0        -313.7220   -85.4840   180.6036 C0            1 RES     
   22801 H4        -317.4984   -88.4369   190.2151 H4            1 RES     
   22802 H5        -317.8668   -86.3347   189.9301 H5            1 RES     
   22803 H4        -315.3170   -91.9394   193.7569 H4            1 RES     
   22804 H6        -317.1566   -92.5471   189.7551 H6            1 RES     
   22805 H6        -315.5760   -92.6446   190.6753 H6            1 RES     
   22806 H6        -317.7550   -94.5141   191.0876 H6            1 RES     
   22807 H6        -315.1311   -95.3123   192.1843 H6            1 RES     
   22808 H6        -315.5148   -93.8033   192.8751 H6            1 RES     
   22809 H6        -317.8715   -94.7373   193.4636 H6            1 RES     
   22810 H6        -317.2794   -96.3189   192.8137 H6            1 RES     
   22811 H6        -315.4525   -96.2627   194.6356 H6            1 RES     
   22812 H6        -316.1993   -94.7278   195.2316 H6            1 RES     
   22813 H6        -317.5399   -97.5092   195.0203 H6            1 RES     
   22814 H6        -318.4142   -95.9983   195.4873 H6            1 RES     
   22815 H6        -316.0416   -97.1984   197.0549 H6            1 RES     
   22816 H6        -316.9798   -95.7102   197.4727 H6            1 RES     
   22817 H6        -319.0792   -97.0952   197.6405 H6            1 RES     
   22818 H6        -318.1154   -98.5772   197.2610 H6            1 RES     
   22819 H6        -317.7999   -97.6569   198.7799 H6            1 RES     
   22820 H6        -316.6375   -94.5727   188.9458 H6            1 RES     
   22821 H6        -315.0014   -94.4211   189.6393 H6            1 RES     
   22822 H6        -316.6699   -97.0189   189.7356 H6            1 RES     
   22823 H6        -315.5386   -96.4402   188.4925 H6            1 RES     
   22824 H6        -313.6730   -96.2871   190.2213 H6            1 RES     
   22825 H6        -314.6932   -97.3227   191.2934 H6            1 RES     
   22826 H6        -314.7376   -99.0477   189.3203 H6            1 RES     
   22827 H6        -313.7405   -97.8844   188.4032 H6            1 RES     
   22828 H6        -311.9728   -98.0234   190.2488 H6            1 RES     
   22829 H6        -312.8738   -99.4476   190.8752 H6            1 RES     
   22830 H6        -310.9365  -100.0573   189.4268 H6            1 RES     
   22831 H6        -311.5454   -99.0176   188.0954 H6            1 RES     
   22832 H6        -313.4960  -100.5289   187.7636 H6            1 RES     
   22833 H6        -312.9331  -101.5753   189.1292 H6            1 RES     
   22834 H6        -310.8094  -102.0550   187.8830 H6            1 RES     
   22835 H6        -311.3547  -100.9932   186.5269 H6            1 RES     
   22836 H6        -312.2545  -102.5070   186.9067 H6            1 RES     
   22837 H6        -315.6439   -89.3806   191.5025 H6            1 RES     
   22838 H6        -314.7757   -90.9001   191.6472 H6            1 RES     
   22839 H6        -313.8808   -89.7463   189.9188 H6            1 RES     
   22840 H6        -315.3687   -92.0763   188.5447 H6            1 RES     
   22841 H6        -313.8961   -92.1513   189.6471 H6            1 RES     
   22842 H6        -313.9986   -91.0775   186.8304 H6            1 RES     
   22843 H6        -312.5913   -90.9907   188.0109 H6            1 RES     
   22844 H6        -312.2550   -92.7139   186.4540 H6            1 RES     
   22845 H6        -312.6071   -93.5401   188.0104 H6            1 RES     
   22846 H6        -314.6901   -92.9840   185.7744 H6            1 RES     
   22847 H6        -314.9197   -94.1008   187.1605 H6            1 RES     
   22848 H6        -312.8762   -94.3300   184.8231 H6            1 RES     
   22849 H6        -314.4395   -95.2105   184.9251 H6            1 RES     
   22850 H6        -312.5442   -96.6697   185.5315 H6            1 RES     
   22851 H6        -313.6964   -96.4228   186.8878 H6            1 RES     
   22852 H6        -312.0914   -95.5799   186.8938 H6            1 RES     
   22853 H6        -316.2394   -89.5099   187.9489 H6            1 RES     
   22854 H6        -315.7675   -88.2373   189.1378 H6            1 RES     
   22855 H6        -313.5518   -88.0620   188.4944 H6            1 RES     
   22856 H6        -313.6527   -89.1366   187.1276 H6            1 RES     
   22857 H6        -313.3969   -86.8752   186.6795 H6            1 RES     
   22858 H6        -315.0197   -86.4060   187.2084 H6            1 RES     
   22859 H6        -315.9682   -87.5369   185.1733 H6            1 RES     
   22860 H6        -314.4534   -88.4867   184.9316 H6            1 RES     
   22861 H6        -313.0987   -86.5350   184.5050 H6            1 RES     
   22862 H6        -314.4936   -85.4119   184.7145 H6            1 RES     
   22863 H6        -315.5165   -86.2673   182.6343 H6            1 RES     
   22864 H6        -314.2382   -87.5385   182.4764 H6            1 RES     
   22865 H6        -312.4565   -85.8229   182.3062 H6            1 RES     
   22866 H6        -313.6585   -84.4953   182.5114 H6            1 RES     
   22867 H6        -314.7433   -85.1227   180.3631 H6            1 RES     
   22868 H6        -313.5637   -86.4861   180.1537 H6            1 RES     
   22869 H6        -312.9883   -84.7793   180.1509 H6            1 RES     
   22870 C0        -311.9380   -91.7482   202.6488 C0            1 RES     
   22871 C1        -312.8490   -90.9765   203.3147 C1            1 RES     
   22872 C1        -314.0850   -91.5130   203.3456 C1            1 RES     
   22873 C1        -314.1408   -92.6217   202.6761 C1            1 RES     
   22874 C1        -312.8273   -92.9284   202.0832 C1            1 RES     
   22875 C1        -313.3088   -92.8174   200.6444 C1            1 RES     
   22876 C1        -314.6558   -92.8768   200.4323 C1            1 RES     
   22877 S2        -315.6057   -93.2612   201.9424 S2            1 RES     
   22878 C1        -315.3086   -92.5893   199.0866 C1            1 RES     
   22879 C1        -314.5456   -92.5725   197.8819 C1            1 RES     
   22880 N3        -315.1175   -92.2918   196.6751 N3            1 RES     
   22881 C1        -316.4285   -91.9921   196.5380 C1            1 RES     
   22882 C1        -317.2325   -91.9671   197.6707 C1            1 RES     
   22883 C1        -316.6771   -92.2737   198.9502 C1            1 RES     
   22884 N3        -317.5623   -92.2039   199.9842 N3            1 RES     
   22885 S2        -318.9741   -91.7737   199.2315 S2            1 RES     
   22886 N3        -318.5509   -91.6546   197.6395 N3            1 RES     
   22887 S2        -315.2336   -90.5180   204.0470 S2            1 RES     
   22888 C1        -314.0941   -89.3052   204.3602 C1            1 RES     
   22889 C1        -312.8408   -89.6831   203.8632 C1            1 RES     
   22890 C0        -310.8208   -92.1709   203.7201 C0            1 RES     
   22891 C0        -310.4715   -92.1693   205.2926 C0            1 RES     
   22892 C0        -310.6191   -90.8026   206.0327 C0            1 RES     
   22893 C0        -311.6093   -90.9088   207.2079 C0            1 RES     
   22894 C0        -311.9505   -89.5614   207.8694 C0            1 RES     
   22895 C0        -312.8531   -89.8060   209.0939 C0            1 RES     
   22896 C0        -313.4073   -88.5099   209.6985 C0            1 RES     
   22897 C0        -314.2644   -88.8145   210.9293 C0            1 RES     
   22898 C0        -308.9628   -92.6758   205.3700 C0            1 RES     
   22899 C0        -308.0944   -92.8580   206.6542 C0            1 RES     
   22900 C0        -307.3799   -91.5958   207.2274 C0            1 RES     
   22901 C0        -306.0584   -91.9719   207.9655 C0            1 RES     
   22902 C0        -305.2567   -90.7508   208.4620 C0            1 RES     
   22903 C0        -303.7568   -91.0420   208.7284 C0            1 RES     
   22904 C0        -303.4665   -92.1379   209.7643 C0            1 RES     
   22905 C0        -301.9544   -92.3002   209.9708 C0            1 RES     
   22906 C0        -311.0701   -90.9271   201.5784 C0            1 RES     
   22907 C0        -309.7466   -91.4448   200.7618 C0            1 RES     
   22908 C0        -308.5457   -91.8417   201.7112 C0            1 RES     
   22909 C0        -307.1550   -92.0316   201.1141 C0            1 RES     
   22910 C0        -306.0220   -92.2538   202.1322 C0            1 RES     
   22911 C0        -306.0631   -93.6491   202.7891 C0            1 RES     
   22912 C0        -304.6993   -94.0564   203.3756 C0            1 RES     
   22913 C0        -304.2611   -93.2100   204.5583 C0            1 RES     
   22914 C0        -309.9123   -92.4257   199.5133 C0            1 RES     
   22915 C0        -308.8283   -92.1445   198.4044 C0            1 RES     
   22916 C0        -308.8229   -92.8144   197.0026 C0            1 RES     
   22917 C0        -308.1050   -94.1917   196.8201 C0            1 RES     
   22918 C0        -307.4869   -94.2425   195.3881 C0            1 RES     
   22919 C0        -306.7014   -95.5126   194.9957 C0            1 RES     
   22920 C0        -305.9596   -95.2590   193.6591 C0            1 RES     
   22921 C0        -305.1935   -96.4763   193.1434 C0            1 RES     
   22922 H4        -312.6351   -92.6106   199.8546 H4            1 RES     
   22923 H5        -313.4930   -92.8045   197.8893 H5            1 RES     
   22924 H4        -311.9903   -89.0205   203.8877 H4            1 RES     
   22925 H6        -310.5987   -93.2171   203.4194 H6            1 RES     
   22926 H6        -310.0223   -91.4822   203.5305 H6            1 RES     
   22927 H6        -311.1083   -92.9281   205.7984 H6            1 RES     
   22928 H6        -309.6527   -90.4346   206.4215 H6            1 RES     
   22929 H6        -310.9006   -90.0186   205.3393 H6            1 RES     
   22930 H6        -312.5639   -91.3446   206.8388 H6            1 RES     
   22931 H6        -311.1686   -91.5965   207.9631 H6            1 RES     
   22932 H6        -311.0293   -89.0301   208.1956 H6            1 RES     
   22933 H6        -312.4826   -88.9292   207.1246 H6            1 RES     
   22934 H6        -312.2642   -90.3543   209.8631 H6            1 RES     
   22935 H6        -313.7185   -90.4363   208.7938 H6            1 RES     
   22936 H6        -312.5790   -87.8315   209.9950 H6            1 RES     
   22937 H6        -314.0394   -87.9956   208.9416 H6            1 RES     
   22938 H6        -315.0987   -89.4998   210.6647 H6            1 RES     
   22939 H6        -313.6460   -89.2901   211.7208 H6            1 RES     
   22940 H6        -314.6960   -87.8752   211.3344 H6            1 RES     
   22941 H6        -308.9930   -93.6887   204.9116 H6            1 RES     
   22942 H6        -308.3307   -92.0456   204.7054 H6            1 RES     
   22943 H6        -308.5977   -93.4551   207.4410 H6            1 RES     
   22944 H6        -307.2586   -93.4864   206.2724 H6            1 RES     
   22945 H6        -307.0711   -90.9473   206.3765 H6            1 RES     
   22946 H6        -308.0593   -91.0184   207.8868 H6            1 RES     
   22947 H6        -306.2448   -92.6704   208.8085 H6            1 RES     
   22948 H6        -305.4148   -92.4889   207.2379 H6            1 RES     
   22949 H6        -305.2597   -89.9709   207.6693 H6            1 RES     
   22950 H6        -305.7480   -90.3257   209.3628 H6            1 RES     
   22951 H6        -303.2816   -90.0953   209.0688 H6            1 RES     
   22952 H6        -303.2744   -91.3337   207.7686 H6            1 RES     
   22953 H6        -303.8768   -93.1068   209.4093 H6            1 RES     
   22954 H6        -303.9347   -91.8767   210.7360 H6            1 RES     
   22955 H6        -301.5099   -91.3572   210.3567 H6            1 RES     
   22956 H6        -301.4512   -92.5665   209.0158 H6            1 RES     
   22957 H6        -301.7546   -93.1074   210.7073 H6            1 RES     
   22958 H6        -311.7804   -90.5309   200.8200 H6            1 RES     
   22959 H6        -310.7021   -90.0186   202.1078 H6            1 RES     
   22960 H6        -309.4428   -90.4866   200.2872 H6            1 RES     
   22961 H6        -308.7810   -92.7850   202.2393 H6            1 RES     
   22962 H6        -308.4001   -90.9920   202.4121 H6            1 RES     
   22963 H6        -307.1411   -92.9342   200.4781 H6            1 RES     
   22964 H6        -306.9133   -91.1105   200.5408 H6            1 RES     
   22965 H6        -305.0886   -92.2028   201.5325 H6            1 RES     
   22966 H6        -305.9840   -91.4413   202.8916 H6            1 RES     
   22967 H6        -306.2740   -94.4027   202.0010 H6            1 RES     
   22968 H6        -306.8723   -93.7142   203.5467 H6            1 RES     
   22969 H6        -303.9271   -93.9958   202.5781 H6            1 RES     
   22970 H6        -304.7572   -95.1135   203.7145 H6            1 RES     
   22971 H6        -303.2666   -93.5552   204.9140 H6            1 RES     
   22972 H6        -304.9941   -93.3544   205.3648 H6            1 RES     
   22973 H6        -304.1870   -92.1357   204.2924 H6            1 RES     
   22974 H6        -309.9706   -93.4891   199.8334 H6            1 RES     
   22975 H6        -310.8389   -92.1570   198.9805 H6            1 RES     
   22976 H6        -308.9608   -91.0627   198.1872 H6            1 RES     
   22977 H6        -307.7973   -92.2403   198.7279 H6            1 RES     
   22978 H6        -308.1777   -92.0993   196.4441 H6            1 RES     
   22979 H6        -309.8089   -92.7849   196.4945 H6            1 RES     
   22980 H6        -308.8072   -95.0310   197.0157 H6            1 RES     
   22981 H6        -307.2504   -94.2758   197.5263 H6            1 RES     
   22982 H6        -306.7619   -93.3991   195.3310 H6            1 RES     
   22983 H6        -308.2792   -94.0729   194.6275 H6            1 RES     
   22984 H6        -307.4034   -96.3680   194.8933 H6            1 RES     
   22985 H6        -305.9446   -95.7567   195.7726 H6            1 RES     
   22986 H6        -305.2279   -94.4321   193.8032 H6            1 RES     
   22987 H6        -306.6831   -94.9500   192.8740 H6            1 RES     
   22988 H6        -305.8930   -97.3078   192.9181 H6            1 RES     
   22989 H6        -304.4376   -96.8129   193.8830 H6            1 RES     
   22990 H6        -304.6632   -96.2035   192.2031 H6            1 RES     
   22991 C0        -315.1500   -80.3302   206.1275 C0            1 RES     
   22992 C1        -316.4793   -80.3887   205.8139 C1            1 RES     
   22993 C1        -317.1642   -81.2877   206.5483 C1            1 RES     
   22994 C1        -316.3840   -81.9419   207.3506 C1            1 RES     
   22995 C1        -314.9896   -81.4953   207.1862 C1            1 RES     
   22996 C1        -314.4850   -82.8385   206.6808 C1            1 RES     
   22997 C1        -315.2744   -83.9275   206.9132 C1            1 RES     
   22998 S2        -316.7220   -83.5565   207.9607 S2            1 RES     
   22999 C1        -315.0117   -85.3008   206.3090 C1            1 RES     
   23000 C1        -313.7463   -85.6294   205.7395 C1            1 RES     
   23001 N3        -313.5097   -86.8487   205.1742 N3            1 RES     
   23002 C1        -314.4523   -87.8144   205.0946 C1            1 RES     
   23003 C1        -315.7176   -87.5601   205.6088 C1            1 RES     
   23004 C1        -316.0008   -86.3036   206.2259 C1            1 RES     
   23005 N3        -317.2789   -86.1701   206.6800 N3            1 RES     
   23006 S2        -317.9627   -87.6274   206.2884 S2            1 RES     
   23007 N3        -316.7350   -88.4538   205.5551 N3            1 RES     
   23008 S2        -318.7637   -81.4569   206.0852 S2            1 RES     
   23009 C1        -318.6066   -80.2948   204.8637 C1            1 RES     
   23010 C1        -317.2868   -79.8303   204.8088 C1            1 RES     
   23011 C0        -314.8702   -78.8486   206.6760 C0            1 RES     
   23012 C0        -315.5906   -77.4873   207.1479 C0            1 RES     
   23013 C0        -316.6513   -76.8909   206.1698 C0            1 RES     
   23014 C0        -318.0245   -76.7514   206.8539 C0            1 RES     
   23015 C0        -319.1652   -76.3472   205.9027 C0            1 RES     
   23016 C0        -320.4563   -76.1293   206.7148 C0            1 RES     
   23017 C0        -321.6921   -75.9193   205.8309 C0            1 RES     
   23018 C0        -322.9332   -75.6730   206.6920 C0            1 RES     
   23019 C0        -314.3969   -76.4535   207.3607 C0            1 RES     
   23020 C0        -314.5101   -74.9619   207.8067 C0            1 RES     
   23021 C0        -314.8277   -73.9020   206.7076 C0            1 RES     
   23022 C0        -314.2180   -72.5106   207.0612 C0            1 RES     
   23023 C0        -314.4123   -71.4502   205.9575 C0            1 RES     
   23024 C0        -313.4201   -70.2609   206.0383 C0            1 RES     
   23025 C0        -313.4482   -69.4600   207.3483 C0            1 RES     
   23026 C0        -312.4583   -68.2887   207.2876 C0            1 RES     
   23027 C0        -314.1902   -80.3900   204.8437 C0            1 RES     
   23028 C0        -312.5739   -80.1222   204.7951 C0            1 RES     
   23029 C0        -312.1703   -78.6663   205.2625 C0            1 RES     
   23030 C0        -310.7625   -78.1546   204.9747 C0            1 RES     
   23031 C0        -310.5129   -76.6748   205.3173 C0            1 RES     
   23032 C0        -310.4298   -76.4102   206.8350 C0            1 RES     
   23033 C0        -309.6861   -75.1015   207.1576 C0            1 RES     
   23034 C0        -310.4170   -73.8506   206.7014 C0            1 RES     
   23035 C0        -311.5628   -81.2487   205.3019 C0            1 RES     
   23036 C0        -310.2292   -81.2543   204.4620 C0            1 RES     
   23037 C0        -309.1192   -82.3327   204.5982 C0            1 RES     
   23038 C0        -307.9977   -82.1394   205.6709 C0            1 RES     
   23039 C0        -306.6694   -82.7386   205.1127 C0            1 RES     
   23040 C0        -305.4116   -82.6345   206.0023 C0            1 RES     
   23041 C0        -304.1675   -83.0421   205.1734 C0            1 RES     
   23042 C0        -302.8671   -83.0327   205.9758 C0            1 RES     
   23043 H4        -313.6065   -82.9097   206.0949 H4            1 RES     
   23044 H5        -312.9298   -84.9261   205.7602 H5            1 RES     
   23045 H4        -316.9518   -79.1423   204.0489 H4            1 RES     
   23046 H6        -314.1449   -79.0404   207.4954 H6            1 RES     
   23047 H6        -314.4500   -78.3457   205.8285 H6            1 RES     
   23048 H6        -316.0658   -77.6621   208.1382 H6            1 RES     
   23049 H6        -316.3500   -75.9004   205.7845 H6            1 RES     
   23050 H6        -316.7121   -77.4809   205.2627 H6            1 RES     
   23051 H6        -318.3046   -77.7282   207.3063 H6            1 RES     
   23052 H6        -317.9258   -75.9953   207.6639 H6            1 RES     
   23053 H6        -318.9174   -75.4120   205.3539 H6            1 RES     
   23054 H6        -319.3136   -77.1659   205.1643 H6            1 RES     
   23055 H6        -320.3141   -75.2435   207.3737 H6            1 RES     
   23056 H6        -320.6447   -77.0199   207.3534 H6            1 RES     
   23057 H6        -321.5452   -75.0509   205.1537 H6            1 RES     
   23058 H6        -321.8595   -76.8304   205.2155 H6            1 RES     
   23059 H6        -323.1012   -76.5236   207.3876 H6            1 RES     
   23060 H6        -322.8108   -74.7418   207.2860 H6            1 RES     
   23061 H6        -323.8295   -75.5649   206.0457 H6            1 RES     
   23062 H6        -313.7636   -76.9277   208.1423 H6            1 RES     
   23063 H6        -313.7803   -76.4111   206.4353 H6            1 RES     
   23064 H6        -315.1240   -74.8241   208.7195 H6            1 RES     
   23065 H6        -313.4603   -74.7352   208.0995 H6            1 RES     
   23066 H6        -314.3294   -74.2133   205.7618 H6            1 RES     
   23067 H6        -315.9195   -73.8294   206.5278 H6            1 RES     
   23068 H6        -314.6073   -72.1266   208.0277 H6            1 RES     
   23069 H6        -313.1316   -72.6489   207.1688 H6            1 RES     
   23070 H6        -314.2161   -71.9191   204.9684 H6            1 RES     
   23071 H6        -315.4646   -71.0948   205.9656 H6            1 RES     
   23072 H6        -313.6458   -69.5716   205.1946 H6            1 RES     
   23073 H6        -312.3872   -70.6478   205.8888 H6            1 RES     
   23074 H6        -313.1600   -70.1177   208.1954 H6            1 RES     
   23075 H6        -314.4672   -69.0588   207.5273 H6            1 RES     
   23076 H6        -312.7319   -67.5887   206.4686 H6            1 RES     
   23077 H6        -311.4231   -68.6546   207.1125 H6            1 RES     
   23078 H6        -312.4724   -67.7275   208.2460 H6            1 RES     
   23079 H6        -314.3678   -81.3712   204.3511 H6            1 RES     
   23080 H6        -314.5926   -79.6450   204.1197 H6            1 RES     
   23081 H6        -312.4240   -80.1302   203.6937 H6            1 RES     
   23082 H6        -312.3107   -78.5710   206.3559 H6            1 RES     
   23083 H6        -312.8115   -77.9601   204.6928 H6            1 RES     
   23084 H6        -310.0301   -78.7111   205.5857 H6            1 RES     
   23085 H6        -310.5819   -78.2805   203.8852 H6            1 RES     
   23086 H6        -309.5119   -76.4507   204.8917 H6            1 RES     
   23087 H6        -311.2515   -76.0059   204.8219 H6            1 RES     
   23088 H6        -309.8163   -77.2116   207.2985 H6            1 RES     
   23089 H6        -311.4356   -76.4379   207.3046 H6            1 RES     
   23090 H6        -308.6800   -75.1284   206.6853 H6            1 RES     
   23091 H6        -309.5446   -75.0327   208.2579 H6            1 RES     
   23092 H6        -309.8127   -72.9535   206.9564 H6            1 RES     
   23093 H6        -311.3703   -73.8007   207.2466 H6            1 RES     
   23094 H6        -310.5984   -73.8541   205.6072 H6            1 RES     
   23095 H6        -311.4076   -81.1942   206.4018 H6            1 RES     
   23096 H6        -311.9827   -82.2345   205.0443 H6            1 RES     
   23097 H6        -310.5876   -81.3649   203.4159 H6            1 RES     
   23098 H6        -309.6717   -80.3237   204.4695 H6            1 RES     
   23099 H6        -308.5897   -82.1951   203.6286 H6            1 RES     
   23100 H6        -309.5076   -83.3720   204.5803 H6            1 RES     
   23101 H6        -308.2989   -82.5904   206.6414 H6            1 RES     
   23102 H6        -307.8025   -81.0566   205.8313 H6            1 RES     
   23103 H6        -306.4387   -82.1726   204.1817 H6            1 RES     
   23104 H6        -306.8193   -83.8062   204.8433 H6            1 RES     
   23105 H6        -305.5240   -83.2996   206.8856 H6            1 RES     
   23106 H6        -305.2689   -81.5891   206.3525 H6            1 RES     
   23107 H6        -304.0494   -82.3304   204.3252 H6            1 RES     
   23108 H6        -304.3058   -84.0622   204.7544 H6            1 RES     
   23109 H6        -302.9112   -83.7805   206.7945 H6            1 RES     
   23110 H6        -302.6681   -82.0260   206.3985 H6            1 RES     
   23111 H6        -302.0208   -83.3018   205.3041 H6            1 RES     
   23112 C0        -323.7372   -78.6410   197.3985 C0            1 RES     
   23113 C1        -324.4523   -79.7899   197.5919 C1            1 RES     
   23114 C1        -325.0495   -79.8527   198.7986 C1            1 RES     
   23115 C1        -324.7549   -78.8244   199.5309 C1            1 RES     
   23116 C1        -323.8444   -77.9223   198.8041 C1            1 RES     
   23117 C1        -322.6868   -78.1019   199.7746 C1            1 RES     
   23118 C1        -322.9792   -78.6182   201.0038 C1            1 RES     
   23119 S2        -324.7697   -78.8258   201.2895 S2            1 RES     
   23120 C1        -321.9189   -79.0391   202.0130 C1            1 RES     
   23121 C1        -320.5644   -78.6117   201.8857 C1            1 RES     
   23122 N3        -319.6029   -79.0036   202.7712 N3            1 RES     
   23123 C1        -319.8568   -79.8324   203.8086 C1            1 RES     
   23124 C1        -321.1499   -80.3085   203.9854 C1            1 RES     
   23125 C1        -322.1893   -79.9072   203.0920 C1            1 RES     
   23126 N3        -323.4100   -80.4499   203.3619 N3            1 RES     
   23127 S2        -323.1105   -81.3838   204.6970 S2            1 RES     
   23128 N3        -321.4984   -81.1615   204.9792 N3            1 RES     
   23129 S2        -325.8210   -81.3085   199.0931 S2            1 RES     
   23130 C1        -325.3910   -81.9242   197.5754 C1            1 RES     
   23131 C1        -324.6064   -80.9934   196.8836 C1            1 RES     
   23132 C0        -324.4242   -77.8714   196.1696 C0            1 RES     
   23133 C0        -325.7188   -77.8624   195.2112 C0            1 RES     
   23134 C0        -326.0804   -79.2169   194.5241 C0            1 RES     
   23135 C0        -327.5107   -79.6608   194.8849 C0            1 RES     
   23136 C0        -327.8739   -81.0755   194.3989 C0            1 RES     
   23137 C0        -329.3541   -81.3618   194.7160 C0            1 RES     
   23138 C0        -329.7534   -82.8186   194.4496 C0            1 RES     
   23139 C0        -331.2392   -83.0319   194.7481 C0            1 RES     
   23140 C0        -325.3963   -76.7568   194.1101 C0            1 RES     
   23141 C0        -326.2989   -76.3304   192.9099 C0            1 RES     
   23142 C0        -326.2379   -77.1996   191.6165 C0            1 RES     
   23143 C0        -326.5416   -76.3522   190.3427 C0            1 RES     
   23144 C0        -326.3919   -77.1396   189.0244 C0            1 RES     
   23145 C0        -326.1867   -76.2476   187.7723 C0            1 RES     
   23146 C0        -327.3046   -75.2338   187.4883 C0            1 RES     
   23147 C0        -327.0075   -74.4464   186.2048 C0            1 RES     
   23148 C0        -322.2575   -78.8997   196.8358 C0            1 RES     
   23149 C0        -321.1970   -77.7842   196.2722 C0            1 RES     
   23150 C0        -321.7383   -76.9901   195.0163 C0            1 RES     
   23151 C0        -320.7669   -76.1584   194.1850 C0            1 RES     
   23152 C0        -321.3481   -75.5565   192.8930 C0            1 RES     
   23153 C0        -322.3179   -74.3852   193.1533 C0            1 RES     
   23154 C0        -322.4785   -73.4778   191.9201 C0            1 RES     
   23155 C0        -323.1709   -74.1507   190.7476 C0            1 RES     
   23156 C0        -320.3857   -76.8659   197.2955 C0            1 RES     
   23157 C0        -318.9369   -76.5436   196.7653 C0            1 RES     
   23158 C0        -317.8471   -75.8150   197.5991 C0            1 RES     
   23159 C0        -317.7923   -74.2521   197.5799 C0            1 RES     
   23160 C0        -316.3009   -73.8071   197.6939 C0            1 RES     
   23161 C0        -316.0056   -72.2917   197.6689 C0            1 RES     
   23162 C0        -314.4779   -72.0736   197.5294 C0            1 RES     
   23163 C0        -314.0645   -70.6028   197.5539 C0            1 RES     
   23164 H4        -321.6874   -77.9212   199.4764 H4            1 RES     
   23165 H5        -320.2658   -77.9448   201.0933 H5            1 RES     
   23166 H4        -324.1602   -81.2169   195.9276 H4            1 RES     
   23167 H6        -324.3489   -76.8109   196.4920 H6            1 RES     
   23168 H6        -323.7964   -78.1216   195.3383 H6            1 RES     
   23169 H6        -326.5934   -77.5073   195.7994 H6            1 RES     
   23170 H6        -325.9989   -79.1590   193.4239 H6            1 RES     
   23171 H6        -325.3493   -79.9788   194.7684 H6            1 RES     
   23172 H6        -327.6235   -79.6546   195.9914 H6            1 RES     
   23173 H6        -328.2171   -78.9211   194.4474 H6            1 RES     
   23174 H6        -327.7091   -81.1780   193.3036 H6            1 RES     
   23175 H6        -327.2230   -81.8065   194.9277 H6            1 RES     
   23176 H6        -329.9853   -80.6834   194.0993 H6            1 RES     
   23177 H6        -329.5489   -81.1488   195.7898 H6            1 RES     
   23178 H6        -329.5558   -83.0905   193.3906 H6            1 RES     
   23179 H6        -329.1572   -83.4866   195.1093 H6            1 RES     
   23180 H6        -331.4694   -82.7592   195.8009 H6            1 RES     
   23181 H6        -331.8612   -82.4076   194.0710 H6            1 RES     
   23182 H6        -331.5092   -84.0977   194.5938 H6            1 RES     
   23183 H6        -325.2580   -75.8221   194.6967 H6            1 RES     
   23184 H6        -324.4138   -76.9845   193.6397 H6            1 RES     
   23185 H6        -327.3381   -76.0871   193.2095 H6            1 RES     
   23186 H6        -325.8283   -75.3683   192.6063 H6            1 RES     
   23187 H6        -325.1951   -77.5680   191.4869 H6            1 RES     
   23188 H6        -326.9173   -78.0728   191.6909 H6            1 RES     
   23189 H6        -327.5477   -75.8849   190.3922 H6            1 RES     
   23190 H6        -325.7974   -75.5426   190.3051 H6            1 RES     
   23191 H6        -325.4756   -77.7672   189.0812 H6            1 RES     
   23192 H6        -327.2632   -77.8162   188.8953 H6            1 RES     
   23193 H6        -326.0813   -76.9180   186.8906 H6            1 RES     
   23194 H6        -325.2305   -75.6890   187.8855 H6            1 RES     
   23195 H6        -327.3799   -74.5138   188.3304 H6            1 RES     
   23196 H6        -328.2743   -75.7600   187.3693 H6            1 RES     
   23197 H6        -326.9548   -75.1309   185.3305 H6            1 RES     
   23198 H6        -326.0419   -73.9018   186.2895 H6            1 RES     
   23199 H6        -327.8118   -73.7033   186.0185 H6            1 RES     
   23200 H6        -321.7178   -79.4961   197.6039 H6            1 RES     
   23201 H6        -322.3696   -79.5998   195.9765 H6            1 RES     
   23202 H6        -320.4142   -78.4660   195.8747 H6            1 RES     
   23203 H6        -322.5418   -76.2965   195.3288 H6            1 RES     
   23204 H6        -322.0976   -77.7502   194.2900 H6            1 RES     
   23205 H6        -320.4244   -75.2871   194.7706 H6            1 RES     
   23206 H6        -319.9263   -76.8252   193.8945 H6            1 RES     
   23207 H6        -320.4704   -75.1401   192.3549 H6            1 RES     
   23208 H6        -321.8072   -76.3357   192.2445 H6            1 RES     
   23209 H6        -321.8778   -73.7317   193.9361 H6            1 RES     
   23210 H6        -323.2984   -74.7491   193.5263 H6            1 RES     
   23211 H6        -321.4761   -73.1224   191.5964 H6            1 RES     
   23212 H6        -323.0794   -72.5878   192.2071 H6            1 RES     
   23213 H6        -323.2357   -73.4393   189.8964 H6            1 RES     
   23214 H6        -324.1896   -74.4148   191.0654 H6            1 RES     
   23215 H6        -322.6256   -75.0557   190.4100 H6            1 RES     
   23216 H6        -320.9715   -75.9687   197.5929 H6            1 RES     
   23217 H6        -320.1577   -77.4631   198.1932 H6            1 RES     
   23218 H6        -318.5053   -77.5499   196.5757 H6            1 RES     
   23219 H6        -318.8951   -76.0365   195.8072 H6            1 RES     
   23220 H6        -316.9335   -76.1224   197.0420 H6            1 RES     
   23221 H6        -317.7243   -76.2262   198.6223 H6            1 RES     
   23222 H6        -318.4313   -73.8256   198.3834 H6            1 RES     
   23223 H6        -318.1534   -73.8673   196.6012 H6            1 RES     
   23224 H6        -315.7778   -74.2398   196.8111 H6            1 RES     
   23225 H6        -315.8469   -74.2363   198.6129 H6            1 RES     
   23226 H6        -316.3804   -71.8237   198.6047 H6            1 RES     
   23227 H6        -316.5061   -71.8128   196.7994 H6            1 RES     
   23228 H6        -314.1379   -72.5069   196.5617 H6            1 RES     
   23229 H6        -313.9416   -72.5953   198.3513 H6            1 RES     
   23230 H6        -314.3214   -70.1440   198.5311 H6            1 RES     
   23231 H6        -314.5558   -70.0381   196.7344 H6            1 RES     
   23232 H6        -312.9622   -70.5302   197.4146 H6            1 RES     
   23233 C0        -325.0100   -90.5772   194.4500 C0            1 RES     
   23234 C1        -325.2046   -91.0775   195.7072 C1            1 RES     
   23235 C1        -326.3385   -90.6386   196.2890 C1            1 RES     
   23236 C1        -326.9606   -89.7847   195.5378 C1            1 RES     
   23237 C1        -326.2116   -89.5603   194.2891 C1            1 RES     
   23238 C1        -325.9313   -88.0920   194.5716 C1            1 RES     
   23239 C1        -326.6987   -87.4834   195.5223 C1            1 RES     
   23240 S2        -328.0485   -88.5428   196.1439 S2            1 RES     
   23241 C1        -326.4212   -86.0850   196.0584 C1            1 RES     
   23242 C1        -325.5542   -85.1864   195.3695 C1            1 RES     
   23243 N3        -325.2807   -83.9408   195.8550 N3            1 RES     
   23244 C1        -325.7883   -83.4812   197.0206 C1            1 RES     
   23245 C1        -326.6247   -84.3083   197.7598 C1            1 RES     
   23246 C1        -326.9514   -85.6123   197.2775 C1            1 RES     
   23247 N3        -327.7698   -86.3313   198.0966 N3            1 RES     
   23248 S2        -328.0345   -85.2906   199.3581 S2            1 RES     
   23249 N3        -327.1629   -83.9482   198.9504 N3            1 RES     
   23250 S2        -326.5212   -91.1443   197.8740 S2            1 RES     
   23251 C1        -325.0635   -92.0051   197.8418 C1            1 RES     
   23252 C1        -324.4344   -91.8391   196.6019 C1            1 RES     
   23253 C0        -325.0206   -91.8305   193.4481 C0            1 RES     
   23254 C0        -325.3411   -93.4062   193.3522 C0            1 RES     
   23255 C0        -324.6732   -94.3150   194.4318 C0            1 RES     
   23256 C0        -325.7301   -95.1017   195.2299 C0            1 RES     
   23257 C0        -325.1643   -95.8760   196.4340 C0            1 RES     
   23258 C0        -326.2875   -96.7085   197.0812 C0            1 RES     
   23259 C0        -325.8661   -97.3566   198.4059 C0            1 RES     
   23260 C0        -327.0086   -98.1972   198.9806 C0            1 RES     
   23261 C0        -324.8485   -93.8290   191.8971 C0            1 RES     
   23262 C0        -324.9008   -95.2536   191.2613 C0            1 RES     
   23263 C0        -323.7448   -96.2415   191.6078 C0            1 RES     
   23264 C0        -323.4887   -97.2522   190.4477 C0            1 RES     
   23265 C0        -322.2857   -98.1863   190.6939 C0            1 RES     
   23266 C0        -321.7037   -98.8243   189.4056 C0            1 RES     
   23267 C0        -322.6846   -99.6717   188.5823 C0            1 RES     
   23268 C0        -321.9806  -100.2819   187.3625 C0            1 RES     
   23269 C0        -323.5357   -89.9882   194.2207 C0            1 RES     
   23270 C0        -322.8606   -89.5172   192.8034 C0            1 RES     
   23271 C0        -322.7618   -90.6859   191.7427 C0            1 RES     
   23272 C0        -321.8801   -90.5026   190.5117 C0            1 RES     
   23273 C0        -321.7162   -91.7488   189.6230 C0            1 RES     
   23274 C0        -322.9854   -92.0865   188.8134 C0            1 RES     
   23275 C0        -322.6763   -92.9619   187.5854 C0            1 RES     
   23276 C0        -322.1933   -94.3595   187.9325 C0            1 RES     
   23277 C0        -323.2595   -88.1130   192.1572 C0            1 RES     
   23278 C0        -322.0410   -87.4493   191.4097 C0            1 RES     
   23279 C0        -322.0591   -86.0114   190.8215 C0            1 RES     
   23280 C0        -322.5854   -85.7914   189.3653 C0            1 RES     
   23281 C0        -321.7772   -84.6242   188.7174 C0            1 RES     
   23282 C0        -322.1143   -84.2481   187.2582 C0            1 RES     
   23283 C0        -321.0417   -83.2648   186.7258 C0            1 RES     
   23284 C0        -321.3102   -82.7775   185.3028 C0            1 RES     
   23285 H4        -325.1168   -87.5914   194.1175 H4            1 RES     
   23286 H5        -325.1058   -85.4609   194.4286 H5            1 RES     
   23287 H4        -323.4541   -92.2397   196.3976 H4            1 RES     
   23288 H6        -325.5567   -91.4160   192.5677 H6            1 RES     
   23289 H6        -323.9801   -92.0202   193.2774 H6            1 RES     
   23290 H6        -326.4438   -93.5469   193.3891 H6            1 RES     
   23291 H6        -323.9632   -95.0349   193.9868 H6            1 RES     
   23292 H6        -324.0311   -93.7315   195.0814 H6            1 RES     
   23293 H6        -326.4895   -94.3909   195.6239 H6            1 RES     
   23294 H6        -326.2283   -95.8085   194.5301 H6            1 RES     
   23295 H6        -324.3400   -96.5550   196.1229 H6            1 RES     
   23296 H6        -324.7642   -95.1414   197.1674 H6            1 RES     
   23297 H6        -326.6007   -97.4987   196.3625 H6            1 RES     
   23298 H6        -327.1604   -96.0517   197.2888 H6            1 RES     
   23299 H6        -324.9786   -98.0083   198.2573 H6            1 RES     
   23300 H6        -325.6074   -96.5587   199.1363 H6            1 RES     
   23301 H6        -327.9153   -97.5723   199.1325 H6            1 RES     
   23302 H6        -327.2584   -99.0308   198.2894 H6            1 RES     
   23303 H6        -326.7097   -98.6272   199.9596 H6            1 RES     
   23304 H6        -325.4561   -93.1985   191.2114 H6            1 RES     
   23305 H6        -323.7897   -93.5137   191.7633 H6            1 RES     
   23306 H6        -325.9003   -95.7277   191.3328 H6            1 RES     
   23307 H6        -324.7407   -95.0242   190.1838 H6            1 RES     
   23308 H6        -322.8008   -95.6596   191.7090 H6            1 RES     
   23309 H6        -323.9432   -96.7673   192.5637 H6            1 RES     
   23310 H6        -324.3944   -97.8534   190.2211 H6            1 RES     
   23311 H6        -323.2442   -96.6634   189.5509 H6            1 RES     
   23312 H6        -321.4488   -97.5915   191.1211 H6            1 RES     
   23313 H6        -322.5659   -98.9648   191.4347 H6            1 RES     
   23314 H6        -320.8424   -99.4635   189.7017 H6            1 RES     
   23315 H6        -321.3109   -98.0132   188.7523 H6            1 RES     
   23316 H6        -323.5189   -99.0339   188.2214 H6            1 RES     
   23317 H6        -323.0953  -100.4924   189.2064 H6            1 RES     
   23318 H6        -321.1555  -100.9538   187.6840 H6            1 RES     
   23319 H6        -321.5586   -99.4863   186.7106 H6            1 RES     
   23320 H6        -322.7025  -100.8770   186.7638 H6            1 RES     
   23321 H6        -323.4095   -89.1432   194.9327 H6            1 RES     
   23322 H6        -322.8292   -90.7652   194.5923 H6            1 RES     
   23323 H6        -321.8185   -89.3449   193.1499 H6            1 RES     
   23324 H6        -323.7706   -90.9315   191.3601 H6            1 RES     
   23325 H6        -322.2874   -91.5467   192.2609 H6            1 RES     
   23326 H6        -322.3210   -89.7399   189.8460 H6            1 RES     
   23327 H6        -320.8688   -90.2125   190.8702 H6            1 RES     
   23328 H6        -320.9266   -91.4735   188.8922 H6            1 RES     
   23329 H6        -321.3521   -92.6254   190.2040 H6            1 RES     
   23330 H6        -323.3986   -91.1432   188.3977 H6            1 RES     
   23331 H6        -323.7650   -92.5438   189.4584 H6            1 RES     
   23332 H6        -321.9084   -92.4555   186.9611 H6            1 RES     
   23333 H6        -323.6003   -93.0611   186.9756 H6            1 RES     
   23334 H6        -321.9791   -94.9213   186.9979 H6            1 RES     
   23335 H6        -323.0026   -94.8701   188.4737 H6            1 RES     
   23336 H6        -321.2716   -94.3367   188.5491 H6            1 RES     
   23337 H6        -324.1820   -88.1934   191.5414 H6            1 RES     
   23338 H6        -323.4303   -87.3910   192.9721 H6            1 RES     
   23339 H6        -321.2521   -87.4123   192.1915 H6            1 RES     
   23340 H6        -321.6115   -88.0391   190.6069 H6            1 RES     
   23341 H6        -320.9659   -85.8155   190.7443 H6            1 RES     
   23342 H6        -322.4489   -85.2495   191.5278 H6            1 RES     
   23343 H6        -323.6817   -85.6072   189.3662 H6            1 RES     
   23344 H6        -322.3798   -86.6895   188.7430 H6            1 RES     
   23345 H6        -320.7110   -84.9457   188.7166 H6            1 RES     
   23346 H6        -321.8650   -83.7099   189.3429 H6            1 RES     
   23347 H6        -323.1224   -83.7820   187.2171 H6            1 RES     
   23348 H6        -322.1077   -85.1530   186.6125 H6            1 RES     
   23349 H6        -320.0512   -83.7733   186.7305 H6            1 RES     
   23350 H6        -320.9783   -82.3744   187.3881 H6            1 RES     
   23351 H6        -322.2579   -82.2015   185.2623 H6            1 RES     
   23352 H6        -321.3594   -83.6297   184.5934 H6            1 RES     
   23353 H6        -320.4813   -82.1061   184.9834 H6            1 RES     
   23354 C0        -319.6908   -95.0520   204.6710 C0            1 RES     
   23355 C1        -320.4129   -94.3539   205.5982 C1            1 RES     
   23356 C1        -321.7237   -94.6678   205.6038 C1            1 RES     
   23357 C1        -322.0128   -95.5255   204.6758 C1            1 RES     
   23358 C1        -320.8067   -95.8692   203.9025 C1            1 RES     
   23359 C1        -321.3255   -95.2903   202.5948 C1            1 RES     
   23360 C1        -322.6689   -95.0672   202.5022 C1            1 RES     
   23361 S2        -323.6025   -95.6897   203.9414 S2            1 RES     
   23362 C1        -323.3192   -94.3185   201.3462 C1            1 RES     
   23363 C1        -322.6225   -94.0976   200.1217 C1            1 RES     
   23364 N3        -323.1883   -93.4068   199.0897 N3            1 RES     
   23365 C1        -324.4269   -92.8698   199.1598 C1            1 RES     
   23366 C1        -325.1595   -93.0248   200.3299 C1            1 RES     
   23367 C1        -324.6113   -93.7574   201.4265 C1            1 RES     
   23368 N3        -325.4201   -93.8295   202.5212 N3            1 RES     
   23369 S2        -326.7621   -92.9836   202.0436 S2            1 RES     
   23370 N3        -326.3982   -92.5036   200.5058 N3            1 RES     
   23371 S2        -322.6365   -93.7287   206.6460 S2            1 RES     
   23372 C1        -321.2806   -92.8525   207.1571 C1            1 RES     
   23373 C1        -320.1422   -93.2801   206.4629 C1            1 RES     
   23374 C0        -318.6219   -95.9298   205.4844 C0            1 RES     
   23375 C0        -318.2061   -96.4170   206.9623 C0            1 RES     
   23376 C0        -318.0660   -95.3007   208.0448 C0            1 RES     
   23377 C0        -319.0036   -95.5610   209.2390 C0            1 RES     
   23378 C0        -319.0609   -94.4098   210.2592 C0            1 RES     
   23379 C0        -319.9355   -94.8291   211.4562 C0            1 RES     
   23380 C0        -320.2140   -93.6758   212.4283 C0            1 RES     
   23381 C0        -321.0547   -94.1612   213.6114 C0            1 RES     
   23382 C0        -316.8140   -97.1658   206.7622 C0            1 RES     
   23383 C0        -315.9354   -97.8333   207.8664 C0            1 RES     
   23384 C0        -314.9758   -96.9118   208.6801 C0            1 RES     
   23385 C0        -313.7131   -97.6877   209.1664 C0            1 RES     
   23386 C0        -312.6789   -96.7984   209.8875 C0            1 RES     
   23387 C0        -311.2472   -97.3937   209.9261 C0            1 RES     
   23388 C0        -311.1155   -98.7638   210.6070 C0            1 RES     
   23389 C0        -309.6510   -99.2225   210.6206 C0            1 RES     
   23390 C0        -318.7372   -94.1230   203.7761 C0            1 RES     
   23391 C0        -317.5704   -94.6069   202.7317 C0            1 RES     
   23392 C0        -316.4202   -95.4405   203.4268 C0            1 RES     
   23393 C0        -315.1170   -95.6851   202.6728 C0            1 RES     
   23394 C0        -313.9983   -96.3608   203.4860 C0            1 RES     
   23395 C0        -314.2644   -97.8564   203.7556 C0            1 RES     
   23396 C0        -312.9729   -98.6271   204.0842 C0            1 RES     
   23397 C0        -312.3328   -98.2214   205.4005 C0            1 RES     
   23398 C0        -317.9707   -95.1667   201.2913 C0            1 RES     
   23399 C0        -316.9058   -94.7741   200.1978 C0            1 RES     
   23400 C0        -317.0882   -95.0253   198.6755 C0            1 RES     
   23401 C0        -316.6444   -96.3982   198.0721 C0            1 RES     
   23402 C0        -316.1129   -96.1551   196.6252 C0            1 RES     
   23403 C0        -315.5928   -97.3799   195.8420 C0            1 RES     
   23404 C0        -314.8795   -96.8948   194.5548 C0            1 RES     
   23405 C0        -314.3745   -98.0326   193.6687 C0            1 RES     
   23406 H4        -320.6625   -94.9884   201.8269 H4            1 RES     
   23407 H5        -321.6312   -94.4923   199.9691 H5            1 RES     
   23408 H4        -319.1843   -92.7986   206.5798 H4            1 RES     
   23409 H6        -318.6097   -96.8752   204.9008 H6            1 RES     
   23410 H6        -317.7202   -95.3564   205.4073 H6            1 RES     
   23411 H6        -318.9473   -97.1701   207.3094 H6            1 RES     
   23412 H6        -317.0316   -95.2173   208.4237 H6            1 RES     
   23413 H6        -318.2306   -94.3214   207.6105 H6            1 RES     
   23414 H6        -320.0379   -95.7160   208.8602 H6            1 RES     
   23415 H6        -318.6622   -96.4922   209.7430 H6            1 RES     
   23416 H6        -318.0437   -94.1470   210.6249 H6            1 RES     
   23417 H6        -319.5016   -93.5190   209.7593 H6            1 RES     
   23418 H6        -319.4224   -95.6563   211.9962 H6            1 RES     
   23419 H6        -320.9148   -95.2019   211.0844 H6            1 RES     
   23420 H6        -319.2624   -93.2503   212.8128 H6            1 RES     
   23421 H6        -320.7751   -92.8771   211.8953 H6            1 RES     
   23422 H6        -322.0118   -94.6011   213.2563 H6            1 RES     
   23423 H6        -320.4982   -94.9305   214.1890 H6            1 RES     
   23424 H6        -321.2874   -93.3114   214.2870 H6            1 RES     
   23425 H6        -317.0507   -97.9949   206.0596 H6            1 RES     
   23426 H6        -316.1083   -96.4902   206.2293 H6            1 RES     
   23427 H6        -316.5030   -98.5322   208.5132 H6            1 RES     
   23428 H6        -315.2477   -98.4612   207.2565 H6            1 RES     
   23429 H6        -314.5928   -96.1147   208.0035 H6            1 RES     
   23430 H6        -315.5065   -96.4340   209.5285 H6            1 RES     
   23431 H6        -313.9854   -98.5500   209.8108 H6            1 RES     
   23432 H6        -313.2096   -98.0836   208.2717 H6            1 RES     
   23433 H6        -312.5753   -95.8415   209.3304 H6            1 RES     
   23434 H6        -313.0417   -96.5620   210.9102 H6            1 RES     
   23435 H6        -310.5912   -96.6680   210.4561 H6            1 RES     
   23436 H6        -310.8714   -97.4860   208.8824 H6            1 RES     
   23437 H6        -311.7126   -99.5172   210.0510 H6            1 RES     
   23438 H6        -311.4825   -98.7059   211.6527 H6            1 RES     
   23439 H6        -309.0236   -98.5079   211.1963 H6            1 RES     
   23440 H6        -309.2499   -99.2956   209.5863 H6            1 RES     
   23441 H6        -309.5689  -100.2222   211.0980 H6            1 RES     
   23442 H6        -319.3970   -93.4229   203.2181 H6            1 RES     
   23443 H6        -318.1847   -93.4677   204.4877 H6            1 RES     
   23444 H6        -317.1181   -93.6187   202.4981 H6            1 RES     
   23445 H6        -316.8000   -96.4406   203.7094 H6            1 RES     
   23446 H6        -316.0889   -94.8516   204.3088 H6            1 RES     
   23447 H6        -315.2984   -96.3681   201.8243 H6            1 RES     
   23448 H6        -314.7371   -94.6947   202.3404 H6            1 RES     
   23449 H6        -313.1001   -96.3013   202.8355 H6            1 RES     
   23450 H6        -313.7768   -95.8055   204.4245 H6            1 RES     
   23451 H6        -314.6462   -98.3197   202.8213 H6            1 RES     
   23452 H6        -315.0359   -97.9930   204.5424 H6            1 RES     
   23453 H6        -312.2404   -98.4778   203.2614 H6            1 RES     
   23454 H6        -313.2082   -99.7121   204.1385 H6            1 RES     
   23455 H6        -311.4031   -98.8094   205.5583 H6            1 RES     
   23456 H6        -313.0418   -98.4590   206.2063 H6            1 RES     
   23457 H6        -312.0751   -97.1427   205.4193 H6            1 RES     
   23458 H6        -318.2083   -96.2525   201.3260 H6            1 RES     
   23459 H6        -318.8558   -94.6138   200.9370 H6            1 RES     
   23460 H6        -316.8474   -93.6677   200.2848 H6            1 RES     
   23461 H6        -315.8961   -95.1229   200.3865 H6            1 RES     
   23462 H6        -316.3492   -94.3005   198.2655 H6            1 RES     
   23463 H6        -318.0744   -94.6961   198.2879 H6            1 RES     
   23464 H6        -317.4790   -97.1318   198.1064 H6            1 RES     
   23465 H6        -315.7881   -96.8119   198.6482 H6            1 RES     
   23466 H6        -315.2488   -95.4594   196.7230 H6            1 RES     
   23467 H6        -316.8948   -95.6557   196.0135 H6            1 RES     
   23468 H6        -316.4439   -98.0471   195.5858 H6            1 RES     
   23469 H6        -314.8586   -97.9485   196.4532 H6            1 RES     
   23470 H6        -314.0027   -96.2710   194.8408 H6            1 RES     
   23471 H6        -315.5695   -96.2679   193.9496 H6            1 RES     
   23472 H6        -315.2243   -98.6439   193.3005 H6            1 RES     
   23473 H6        -313.6598   -98.6785   194.2200 H6            1 RES     
   23474 H6        -313.8471   -97.6033   192.7871 H6            1 RES     
   23475 C0        -320.5888   -84.6598   211.3029 C0            1 RES     
   23476 C1        -321.9193   -84.4109   211.1114 C1            1 RES     
   23477 C1        -322.7229   -85.3517   211.6460 C1            1 RES     
   23478 C1        -322.0398   -86.3198   212.1720 C1            1 RES     
   23479 C1        -320.5963   -86.0804   211.9998 C1            1 RES     
   23480 C1        -320.3706   -87.2974   211.1154 C1            1 RES     
   23481 C1        -321.3349   -88.2634   211.1278 C1            1 RES     
   23482 S2        -322.6399   -87.9614   212.3672 S2            1 RES     
   23483 C1        -321.3568   -89.4420   210.1633 C1            1 RES     
   23484 C1        -320.2009   -89.8050   209.4112 C1            1 RES     
   23485 N3        -320.2184   -90.8441   208.5269 N3            1 RES     
   23486 C1        -321.3248   -91.5826   208.2864 C1            1 RES     
   23487 C1        -322.4969   -91.2748   208.9658 C1            1 RES     
   23488 C1        -322.5159   -90.2070   209.9140 C1            1 RES     
   23489 N3        -323.7254   -89.9952   210.5054 N3            1 RES     
   23490 S2        -324.6824   -91.1563   209.8121 S2            1 RES     
   23491 N3        -323.6624   -91.9399   208.7760 N3            1 RES     
   23492 S2        -324.3459   -85.1224   211.3073 S2            1 RES     
   23493 C1        -324.0347   -83.7120   210.4234 C1            1 RES     
   23494 C1        -322.6561   -83.4736   210.3681 C1            1 RES     
   23495 C0        -320.0168   -83.4522   212.1912 C0            1 RES     
   23496 C0        -320.4526   -82.1735   213.0686 C0            1 RES     
   23497 C0        -321.4298   -81.1660   212.3849 C0            1 RES     
   23498 C0        -322.7210   -80.9960   213.2077 C0            1 RES     
   23499 C0        -323.8109   -80.1647   212.5071 C0            1 RES     
   23500 C0        -325.0011   -79.9691   213.4656 C0            1 RES     
   23501 C0        -326.2168   -79.3247   212.7878 C0            1 RES     
   23502 C0        -327.3506   -79.1237   213.7961 C0            1 RES     
   23503 C0        -319.0810   -81.4483   213.4312 C0            1 RES     
   23504 C0        -318.8978   -80.1387   214.2607 C0            1 RES     
   23505 C0        -319.0658   -78.7808   213.5123 C0            1 RES     
   23506 C0        -318.1954   -77.6595   214.1587 C0            1 RES     
   23507 C0        -318.2426   -76.3202   213.3944 C0            1 RES     
   23508 C0        -317.0464   -75.3783   213.6899 C0            1 RES     
   23509 C0        -316.8665   -74.9742   215.1605 C0            1 RES     
   23510 C0        -315.6823   -74.0102   215.3156 C0            1 RES     
   23511 C0        -319.7165   -84.5219   209.9638 C0            1 RES     
   23512 C0        -318.0826   -84.5202   209.8352 C0            1 RES     
   23513 C0        -317.3975   -83.3352   210.6273 C0            1 RES     
   23514 C0        -315.9345   -83.0026   210.3523 C0            1 RES     
   23515 C0        -315.4020   -81.7354   211.0453 C0            1 RES     
   23516 C0        -315.2018   -81.9146   212.5645 C0            1 RES     
   23517 C0        -314.2165   -80.8851   213.1469 C0            1 RES     
   23518 C0        -314.7257   -79.4547   213.1049 C0            1 RES     
   23519 C0        -317.2730   -85.8927   209.9321 C0            1 RES     
   23520 C0        -316.0033   -85.8866   208.9984 C0            1 RES     
   23521 C0        -315.1050   -87.1281   208.7426 C0            1 RES     
   23522 C0        -313.9188   -87.4232   209.7181 C0            1 RES     
   23523 C0        -312.7502   -88.0560   208.9002 C0            1 RES     
   23524 C0        -311.4550   -88.4079   209.6636 C0            1 RES     
   23525 C0        -310.3464   -88.7711   208.6437 C0            1 RES     
   23526 C0        -309.0308   -89.1958   209.2946 C0            1 RES     
   23527 H4        -319.5480   -87.3484   210.4513 H4            1 RES     
   23528 H5        -319.2691   -89.2784   209.5384 H5            1 RES     
   23529 H4        -322.2359   -82.6682   209.7867 H4            1 RES     
   23530 H6        -319.3020   -83.9778   212.8599 H6            1 RES     
   23531 H6        -319.5510   -82.8123   211.4692 H6            1 RES     
   23532 H6        -320.9056   -82.5327   214.0187 H6            1 RES     
   23533 H6        -320.9700   -80.1712   212.2457 H6            1 RES     
   23534 H6        -321.6397   -81.4663   211.3649 H6            1 RES     
   23535 H6        -323.1544   -81.9996   213.4129 H6            1 RES     
   23536 H6        -322.4480   -80.5179   214.1744 H6            1 RES     
   23537 H6        -323.4212   -79.1688   212.2014 H6            1 RES     
   23538 H6        -324.1409   -80.7136   211.5975 H6            1 RES     
   23539 H6        -324.6686   -79.3337   214.3170 H6            1 RES     
   23540 H6        -325.3201   -80.9570   213.8637 H6            1 RES     
   23541 H6        -325.9445   -78.3402   212.3508 H6            1 RES     
   23542 H6        -326.5769   -79.9918   211.9740 H6            1 RES     
   23543 H6        -327.6396   -80.0929   214.2574 H6            1 RES     
   23544 H6        -327.0321   -78.4244   214.5989 H6            1 RES     
   23545 H6        -328.2407   -78.6969   213.2879 H6            1 RES     
   23546 H6        -318.5100   -82.2160   213.9983 H6            1 RES     
   23547 H6        -318.5104   -81.2556   212.4954 H6            1 RES     
   23548 H6        -319.4331   -80.1577   215.2313 H6            1 RES     
   23549 H6        -317.8118   -80.1766   214.5026 H6            1 RES     
   23550 H6        -318.6773   -78.8982   212.4754 H6            1 RES     
   23551 H6        -320.1329   -78.4834   213.4612 H6            1 RES     
   23552 H6        -318.4627   -77.4968   215.2242 H6            1 RES     
   23553 H6        -317.1491   -77.9985   214.1237 H6            1 RES     
   23554 H6        -318.1816   -76.5254   212.3031 H6            1 RES     
   23555 H6        -319.2103   -75.8129   213.5941 H6            1 RES     
   23556 H6        -317.1804   -74.4568   213.0811 H6            1 RES     
   23557 H6        -316.1099   -75.8735   213.3479 H6            1 RES     
   23558 H6        -316.6651   -75.8770   215.7750 H6            1 RES     
   23559 H6        -317.7852   -74.4757   215.5333 H6            1 RES     
   23560 H6        -315.8603   -73.0774   214.7378 H6            1 RES     
   23561 H6        -314.7410   -74.4788   214.9543 H6            1 RES     
   23562 H6        -315.5490   -73.7389   216.3844 H6            1 RES     
   23563 H6        -320.0937   -85.2873   209.2506 H6            1 RES     
   23564 H6        -320.0083   -83.5514   209.5012 H6            1 RES     
   23565 H6        -317.9877   -84.2503   208.7611 H6            1 RES     
   23566 H6        -317.4674   -83.5217   211.7157 H6            1 RES     
   23567 H6        -317.9238   -82.4045   210.3252 H6            1 RES     
   23568 H6        -315.2893   -83.8177   210.7247 H6            1 RES     
   23569 H6        -315.8305   -82.8527   209.2559 H6            1 RES     
   23570 H6        -314.3976   -81.5707   210.6009 H6            1 RES     
   23571 H6        -316.0273   -80.8444   210.8139 H6            1 RES     
   23572 H6        -314.7250   -82.9017   212.7423 H6            1 RES     
   23573 H6        -316.1728   -81.9044   213.1030 H6            1 RES     
   23574 H6        -313.2553   -80.9462   212.5916 H6            1 RES     
   23575 H6        -314.0141   -81.1449   214.2085 H6            1 RES     
   23576 H6        -313.9559   -78.7738   213.5277 H6            1 RES     
   23577 H6        -315.6274   -79.4004   213.7313 H6            1 RES     
   23578 H6        -314.9549   -79.1281   212.0699 H6            1 RES     
   23579 H6        -317.0599   -86.1682   210.9882 H6            1 RES     
   23580 H6        -317.8782   -86.6871   209.4661 H6            1 RES     
   23581 H6        -316.4238   -85.6456   207.9983 H6            1 RES     
   23582 H6        -315.2848   -85.0984   209.1967 H6            1 RES     
   23583 H6        -314.6045   -86.8187   207.7974 H6            1 RES     
   23584 H6        -315.6780   -88.0441   208.4899 H6            1 RES     
   23585 H6        -314.2525   -88.0673   210.5606 H6            1 RES     
   23586 H6        -313.5210   -86.4733   210.1372 H6            1 RES     
   23587 H6        -312.4628   -87.3023   208.1324 H6            1 RES     
   23588 H6        -313.1057   -88.9691   208.3761 H6            1 RES     
   23589 H6        -311.6466   -89.2619   210.3485 H6            1 RES     
   23590 H6        -311.1069   -87.5368   210.2602 H6            1 RES     
   23591 H6        -310.1390   -87.8835   208.0042 H6            1 RES     
   23592 H6        -310.6887   -89.6001   207.9873 H6            1 RES     
   23593 H6        -309.1735   -90.1216   209.8894 H6            1 RES     
   23594 H6        -308.6311   -88.3905   209.9454 H6            1 RES     
   23595 H6        -308.2801   -89.4054   208.4994 H6            1 RES     
   23596 C0        -329.1136   -79.2551   204.1681 C0            1 RES     
   23597 C1        -330.0177   -80.2794   204.1204 C1            1 RES     
   23598 C1        -330.5600   -80.5717   205.3192 C1            1 RES     
   23599 C1        -330.0482   -79.8466   206.2640 C1            1 RES     
   23600 C1        -329.0222   -78.9420   205.7164 C1            1 RES     
   23601 C1        -327.8736   -79.5685   206.4927 C1            1 RES     
   23602 C1        -328.1988   -80.3468   207.5658 C1            1 RES     
   23603 S2        -329.9818   -80.3278   207.9543 S2            1 RES     
   23604 C1        -327.1883   -81.1964   208.3253 C1            1 RES     
   23605 C1        -325.7857   -80.9790   208.1875 C1            1 RES     
   23606 N3        -324.8727   -81.7511   208.8451 N3            1 RES     
   23607 C1        -325.2261   -82.7792   209.6485 C1            1 RES     
   23608 C1        -326.5751   -83.0665   209.8153 C1            1 RES     
   23609 C1        -327.5634   -82.2705   209.1600 C1            1 RES     
   23610 N3        -328.8492   -82.6584   209.3920 N3            1 RES     
   23611 S2        -328.6648   -83.9586   210.4019 S2            1 RES     
   23612 N3        -327.0280   -84.0901   210.5795 N3            1 RES     
   23613 S2        -331.5711   -81.9053   205.2936 S2            1 RES     
   23614 C1        -331.3319   -82.1431   203.6342 C1            1 RES     
   23615 C1        -330.4226   -81.2002   203.1396 C1            1 RES     
   23616 C0        -329.7037   -78.0761   203.2537 C0            1 RES     
   23617 C0        -331.0174   -77.5921   202.4572 C0            1 RES     
   23618 C0        -331.6528   -78.6277   201.4768 C0            1 RES     
   23619 C0        -333.1221   -78.9124   201.8416 C0            1 RES     
   23620 C0        -333.7608   -80.0600   201.0387 C0            1 RES     
   23621 C0        -335.2521   -80.1752   201.4076 C0            1 RES     
   23622 C0        -335.9239   -81.4169   200.8080 C0            1 RES     
   23623 C0        -337.4082   -81.4569   201.1786 C0            1 RES     
   23624 C0        -330.5487   -76.2955   201.6586 C0            1 RES     
   23625 C0        -331.4121   -75.4141   200.7022 C0            1 RES     
   23626 C0        -331.5714   -75.8930   199.2266 C0            1 RES     
   23627 C0        -331.7729   -74.6909   198.2534 C0            1 RES     
   23628 C0        -331.8312   -75.0999   196.7669 C0            1 RES     
   23629 C0        -331.5238   -73.9451   195.7784 C0            1 RES     
   23630 C0        -332.4485   -72.7230   195.8761 C0            1 RES     
   23631 C0        -332.0716   -71.6737   194.8214 C0            1 RES     
   23632 C0        -327.7341   -79.5889   203.4207 C0            1 RES     
   23633 C0        -326.5141   -78.5515   203.0716 C0            1 RES     
   23634 C0        -326.9578   -77.3657   202.1240 C0            1 RES     
   23635 C0        -325.8896   -76.5092   201.4517 C0            1 RES     
   23636 C0        -326.4096   -75.4891   200.4229 C0            1 RES     
   23637 C0        -327.1348   -74.2914   201.0707 C0            1 RES     
   23638 C0        -327.1829   -73.0670   200.1388 C0            1 RES     
   23639 C0        -328.0404   -73.2694   198.9015 C0            1 RES     
   23640 C0        -325.5017   -78.0953   204.2185 C0            1 RES     
   23641 C0        -324.0444   -77.8823   203.6574 C0            1 RES     
   23642 C0        -322.8020   -77.5995   204.5464 C0            1 RES     
   23643 C0        -322.4623   -76.1224   204.9318 C0            1 RES     
   23644 C0        -320.9110   -75.9769   205.0175 C0            1 RES     
   23645 C0        -320.3440   -74.5827   205.3623 C0            1 RES     
   23646 C0        -318.8104   -74.5886   205.1418 C0            1 RES     
   23647 C0        -318.1334   -73.2696   205.5114 C0            1 RES     
   23648 H4        -326.8729   -79.4795   206.1596 H4            1 RES     
   23649 H5        -325.4067   -80.1788   207.5729 H5            1 RES     
   23650 H4        -330.0696   -81.2230   202.1208 H4            1 RES     
   23651 H6        -329.4202   -77.1720   203.8338 H6            1 RES     
   23652 H6        -329.1715   -78.1882   202.3306 H6            1 RES     
   23653 H6        -331.7840   -77.2734   203.1974 H6            1 RES     
   23654 H6        -331.6130   -78.2846   200.4274 H6            1 RES     
   23655 H6        -331.0635   -79.5367   201.4432 H6            1 RES     
   23656 H6        -333.1807   -79.1915   202.9167 H6            1 RES     
   23657 H6        -333.7001   -77.9756   201.6815 H6            1 RES     
   23658 H6        -333.6683   -79.8837   199.9443 H6            1 RES     
   23659 H6        -333.2314   -81.0045   201.2942 H6            1 RES     
   23660 H6        -335.7759   -79.2596   201.0521 H6            1 RES     
   23661 H6        -335.3548   -80.2359   202.5131 H6            1 RES     
   23662 H6        -335.8286   -81.4166   199.7011 H6            1 RES     
   23663 H6        -335.4306   -82.3287   201.2107 H6            1 RES     
   23664 H6        -337.5356   -81.4494   202.2829 H6            1 RES     
   23665 H6        -337.9357   -80.5776   200.7501 H6            1 RES     
   23666 H6        -337.8761   -82.3802   200.7769 H6            1 RES     
   23667 H6        -330.2143   -75.5934   202.4537 H6            1 RES     
   23668 H6        -329.6475   -76.5435   201.0547 H6            1 RES     
   23669 H6        -332.3741   -75.0951   201.1515 H6            1 RES     
   23670 H6        -330.7875   -74.4965   200.6182 H6            1 RES     
   23671 H6        -330.6210   -76.3777   198.9076 H6            1 RES     
   23672 H6        -332.3954   -76.6292   199.1334 H6            1 RES     
   23673 H6        -332.6728   -74.0964   198.5179 H6            1 RES     
   23674 H6        -330.8953   -74.0356   198.3593 H6            1 RES     
   23675 H6        -331.0441   -75.8606   196.5711 H6            1 RES     
   23676 H6        -332.8169   -75.5625   196.5479 H6            1 RES     
   23677 H6        -331.5841   -74.3557   194.7461 H6            1 RES     
   23678 H6        -330.4772   -73.6038   195.9435 H6            1 RES     
   23679 H6        -332.3515   -72.2594   196.8805 H6            1 RES     
   23680 H6        -333.5028   -73.0297   195.7153 H6            1 RES     
   23681 H6        -332.1858   -72.0911   193.7975 H6            1 RES     
   23682 H6        -331.0196   -71.3395   194.9545 H6            1 RES     
   23683 H6        -332.7336   -70.7864   194.9126 H6            1 RES     
   23684 H6        -327.2782   -80.4532   203.9516 H6            1 RES     
   23685 H6        -328.0123   -79.9982   202.4226 H6            1 RES     
   23686 H6        -325.8889   -79.2170   202.4377 H6            1 RES     
   23687 H6        -327.6050   -76.6623   202.6812 H6            1 RES     
   23688 H6        -327.4837   -77.8277   201.2611 H6            1 RES     
   23689 H6        -325.3665   -75.9004   202.2101 H6            1 RES     
   23690 H6        -325.2001   -77.1994   200.9191 H6            1 RES     
   23691 H6        -325.4961   -75.0911   199.9324 H6            1 RES     
   23692 H6        -327.0332   -75.9742   199.6392 H6            1 RES     
   23693 H6        -326.5466   -73.9592   201.9522 H6            1 RES     
   23694 H6        -328.1472   -74.5775   201.4260 H6            1 RES     
   23695 H6        -326.1483   -72.8061   199.8265 H6            1 RES     
   23696 H6        -327.5964   -72.2038   200.7039 H6            1 RES     
   23697 H6        -328.0128   -72.3512   198.2762 H6            1 RES     
   23698 H6        -329.0745   -73.4395   199.2334 H6            1 RES     
   23699 H6        -327.6866   -74.1238   198.2891 H6            1 RES     
   23700 H6        -325.8985   -77.2305   204.7941 H6            1 RES     
   23701 H6        -325.3460   -78.9447   204.9031 H6            1 RES     
   23702 H6        -323.8140   -78.8548   203.1712 H6            1 RES     
   23703 H6        -323.9544   -77.1459   202.8658 H6            1 RES     
   23704 H6        -321.9870   -77.8881   203.8449 H6            1 RES     
   23705 H6        -322.7097   -78.2901   205.4101 H6            1 RES     
   23706 H6        -322.9744   -75.8337   205.8753 H6            1 RES     
   23707 H6        -322.7915   -75.4301   204.1265 H6            1 RES     
   23708 H6        -320.5174   -76.2307   204.0071 H6            1 RES     
   23709 H6        -320.5015   -76.7102   205.7452 H6            1 RES     
   23710 H6        -320.5829   -74.3343   206.4189 H6            1 RES     
   23711 H6        -320.7877   -73.8082   204.6995 H6            1 RES     
   23712 H6        -318.6007   -74.7896   204.0669 H6            1 RES     
   23713 H6        -318.3415   -75.3964   205.7443 H6            1 RES     
   23714 H6        -318.2563   -73.0606   206.5942 H6            1 RES     
   23715 H6        -318.5500   -72.4291   204.9182 H6            1 RES     
   23716 H6        -317.0441   -73.3435   205.2929 H6            1 RES     
   23717 C0        -332.6901   -89.5474   198.3316 C0            1 RES     
   23718 C1        -332.9149   -90.3343   199.4266 C1            1 RES     
   23719 C1        -333.9209   -89.8919   200.2070 C1            1 RES     
   23720 C1        -334.4098   -88.7746   199.7674 C1            1 RES     
   23721 C1        -333.6907   -88.3425   198.5562 C1            1 RES     
   23722 C1        -333.1330   -87.0747   199.1855 C1            1 RES     
   23723 C1        -333.7310   -86.6328   200.3301 C1            1 RES     
   23724 S2        -335.2221   -87.5854   200.7769 S2            1 RES     
   23725 C1        -333.1771   -85.5004   201.1850 C1            1 RES     
   23726 C1        -332.1927   -84.6023   200.6769 C1            1 RES     
   23727 N3        -331.6731   -83.6001   201.4436 N3            1 RES     
   23728 C1        -332.0334   -83.4010   202.7312 C1            1 RES     
   23729 C1        -332.9724   -84.2501   203.3035 C1            1 RES     
   23730 C1        -333.5548   -85.2997   202.5296 C1            1 RES     
   23731 N3        -334.4525   -86.0713   203.2051 N3            1 RES     
   23732 S2        -334.4632   -85.3877   204.7141 S2            1 RES     
   23733 N3        -333.3798   -84.1470   204.5919 N3            1 RES     
   23734 S2        -334.1200   -90.7757   201.6143 S2            1 RES     
   23735 C1        -332.8481   -91.8219   201.2209 C1            1 RES     
   23736 C1        -332.2571   -91.4278   200.0142 C1            1 RES     
   23737 C0        -332.9767   -90.4585   197.0422 C0            1 RES     
   23738 C0        -333.5850   -91.8725   196.5679 C0            1 RES     
   23739 C0        -333.0461   -93.1394   197.3042 C0            1 RES     
   23740 C0        -334.1915   -93.9302   197.9643 C0            1 RES     
   23741 C0        -333.7224   -95.0870   198.8651 C0            1 RES     
   23742 C0        -334.9483   -95.8689   199.3745 C0            1 RES     
   23743 C0        -334.5922   -96.9156   200.4377 C0            1 RES     
   23744 C0        -335.8419   -97.6820   200.8771 C0            1 RES     
   23745 C0        -333.2460   -91.9550   195.0132 C0            1 RES     
   23746 C0        -333.5881   -93.1219   194.0345 C0            1 RES     
   23747 C0        -332.6183   -94.3428   194.0000 C0            1 RES     
   23748 C0        -332.6059   -95.0244   192.5972 C0            1 RES     
   23749 C0        -331.5847   -96.1745   192.4759 C0            1 RES     
   23750 C0        -331.1897   -96.5214   191.0168 C0            1 RES     
   23751 C0        -332.3464   -96.9374   190.0964 C0            1 RES     
   23752 C0        -331.8234   -97.2966   188.6989 C0            1 RES     
   23753 C0        -331.1449   -89.1685   198.1269 C0            1 RES     
   23754 C0        -330.4609   -88.4444   196.8253 C0            1 RES     
   23755 C0        -330.6274   -89.2771   195.4912 C0            1 RES     
   23756 C0        -329.7847   -88.9106   194.2738 C0            1 RES     
   23757 C0        -329.8935   -89.8746   193.0786 C0            1 RES     
   23758 C0        -331.2391   -89.7642   192.3320 C0            1 RES     
   23759 C0        -331.1529   -90.3076   190.8942 C0            1 RES     
   23760 C0        -330.9191   -91.8063   190.8164 C0            1 RES     
   23761 C0        -330.6247   -86.8711   196.6095 C0            1 RES     
   23762 C0        -329.3409   -86.2373   195.9506 C0            1 RES     
   23763 C0        -329.1220   -84.7106   195.7637 C0            1 RES     
   23764 C0        -329.6655   -84.0163   194.4720 C0            1 RES     
   23765 C0        -328.6877   -82.8654   194.0791 C0            1 RES     
   23766 C0        -329.0170   -82.0535   192.8077 C0            1 RES     
   23767 C0        -327.8079   -81.1519   192.4528 C0            1 RES     
   23768 C0        -328.0478   -80.2558   191.2386 C0            1 RES     
   23769 H4        -332.2623   -86.6095   198.8037 H4            1 RES     
   23770 H5        -331.8462   -84.6779   199.6591 H5            1 RES     
   23771 H4        -331.3775   -91.9123   199.6209 H4            1 RES     
   23772 H6        -333.4676   -89.7362   196.3554 H6            1 RES     
   23773 H6        -331.9977   -90.7623   196.7307 H6            1 RES     
   23774 H6        -334.6919   -91.8350   196.6701 H6            1 RES     
   23775 H6        -332.5016   -93.8161   196.6216 H6            1 RES     
   23776 H6        -332.2785   -92.8701   198.0204 H6            1 RES     
   23777 H6        -334.7885   -93.2401   198.6002 H6            1 RES     
   23778 H6        -334.8427   -94.3262   197.1539 H6            1 RES     
   23779 H6        -333.0520   -95.7804   198.3109 H6            1 RES     
   23780 H6        -333.1608   -94.6578   199.7241 H6            1 RES     
   23781 H6        -335.4340   -96.3692   198.5068 H6            1 RES     
   23782 H6        -335.6752   -95.1602   199.8278 H6            1 RES     
   23783 H6        -333.8473   -97.6380   200.0408 H6            1 RES     
   23784 H6        -334.1581   -96.4023   201.3237 H6            1 RES     
   23785 H6        -336.6105   -96.9827   201.2719 H6            1 RES     
   23786 H6        -336.2721   -98.2413   200.0185 H6            1 RES     
   23787 H6        -335.5821   -98.4070   201.6769 H6            1 RES     
   23788 H6        -333.7585   -91.0698   194.5766 H6            1 RES     
   23789 H6        -332.1546   -91.7935   194.8676 H6            1 RES     
   23790 H6        -334.6533   -93.4266   194.0732 H6            1 RES     
   23791 H6        -333.4385   -92.6353   193.0445 H6            1 RES     
   23792 H6        -331.5800   -93.9742   194.1608 H6            1 RES     
   23793 H6        -332.8655   -95.0707   194.7993 H6            1 RES     
   23794 H6        -333.6160   -95.3832   192.3073 H6            1 RES     
   23795 H6        -332.2992   -94.2607   191.8668 H6            1 RES     
   23796 H6        -330.6340   -95.8655   192.9633 H6            1 RES     
   23797 H6        -331.9686   -97.0694   193.0101 H6            1 RES     
   23798 H6        -330.4477   -97.3495   191.0529 H6            1 RES     
   23799 H6        -330.6854   -95.6380   190.5646 H6            1 RES     
   23800 H6        -333.0653   -96.0970   189.9952 H6            1 RES     
   23801 H6        -332.8715   -97.8187   190.5197 H6            1 RES     
   23802 H6        -331.1217   -98.1569   188.7542 H6            1 RES     
   23803 H6        -331.2931   -96.4332   188.2412 H6            1 RES     
   23804 H6        -332.6691   -97.5778   188.0359 H6            1 RES     
   23805 H6        -330.8330   -88.5839   199.0200 H6            1 RES     
   23806 H6        -330.5766   -90.1227   198.2140 H6            1 RES     
   23807 H6        -329.3900   -88.5473   197.1051 H6            1 RES     
   23808 H6        -331.6806   -89.2392   195.1543 H6            1 RES     
   23809 H6        -330.2955   -90.3127   195.7191 H6            1 RES     
   23810 H6        -330.1084   -87.9329   193.8754 H6            1 RES     
   23811 H6        -328.7219   -88.9001   194.5990 H6            1 RES     
   23812 H6        -329.1013   -89.5429   192.3744 H6            1 RES     
   23813 H6        -329.6701   -90.9243   193.3730 H6            1 RES     
   23814 H6        -331.4909   -88.6885   192.2184 H6            1 RES     
   23815 H6        -332.0588   -90.2463   192.9051 H6            1 RES     
   23816 H6        -330.3348   -89.7826   190.3548 H6            1 RES     
   23817 H6        -332.1066   -90.0826   190.3693 H6            1 RES     
   23818 H6        -330.8550   -92.1175   189.7515 H6            1 RES     
   23819 H6        -331.7825   -92.3057   191.2787 H6            1 RES     
   23820 H6        -329.9814   -92.1052   191.3280 H6            1 RES     
   23821 H6        -331.5737   -86.6270   196.0838 H6            1 RES     
   23822 H6        -330.6223   -86.3825   197.5973 H6            1 RES     
   23823 H6        -328.5234   -86.5463   196.6371 H6            1 RES     
   23824 H6        -329.0644   -86.6466   194.9848 H6            1 RES     
   23825 H6        -328.0161   -84.6833   195.6380 H6            1 RES     
   23826 H6        -329.3323   -84.1183   196.6782 H6            1 RES     
   23827 H6        -330.7082   -83.6620   194.6242 H6            1 RES     
   23828 H6        -329.6572   -84.7305   193.6199 H6            1 RES     
   23829 H6        -327.6997   -83.3449   193.8939 H6            1 RES     
   23830 H6        -328.5772   -82.1562   194.9275 H6            1 RES     
   23831 H6        -329.9232   -81.4350   192.9850 H6            1 RES     
   23832 H6        -329.2063   -82.7350   191.9500 H6            1 RES     
   23833 H6        -326.9284   -81.7977   192.2310 H6            1 RES     
   23834 H6        -327.5517   -80.5002   193.3160 H6            1 RES     
   23835 H6        -328.8745   -79.5434   191.4397 H6            1 RES     
   23836 H6        -328.2852   -80.8606   190.3389 H6            1 RES     
   23837 H6        -327.1254   -79.6682   191.0296 H6            1 RES     
   23838 C0        -327.8165   -97.4641   206.4779 C0            1 RES     
   23839 C1        -328.3547   -96.9383   207.6192 C1            1 RES     
   23840 C1        -329.6991   -97.0220   207.6657 C1            1 RES     
   23841 C1        -330.1833   -97.5328   206.5770 C1            1 RES     
   23842 C1        -329.0977   -97.8444   205.6308 C1            1 RES     
   23843 C1        -329.5612   -96.8521   204.5750 C1            1 RES     
   23844 C1        -330.8436   -96.3947   204.6708 C1            1 RES     
   23845 S2        -331.8082   -97.2260   205.9781 S2            1 RES     
   23846 C1        -331.3982   -95.2615   203.8175 C1            1 RES     
   23847 C1        -330.7300   -94.8307   202.6336 C1            1 RES     
   23848 N3        -331.2064   -93.8002   201.8764 N3            1 RES     
   23849 C1        -332.3209   -93.1072   202.2007 C1            1 RES     
   23850 C1        -333.0147   -93.4547   203.3530 C1            1 RES     
   23851 C1        -332.5603   -94.5396   204.1631 C1            1 RES     
   23852 N3        -333.3171   -94.7754   205.2717 N3            1 RES     
   23853 S2        -334.5017   -93.6225   205.1606 S2            1 RES     
   23854 N3        -334.1272   -92.8057   203.7749 N3            1 RES     
   23855 S2        -330.3750   -96.2682   208.9984 S2            1 RES     
   23856 C1        -328.8592   -95.8008   209.5911 C1            1 RES     
   23857 C1        -327.8519   -96.2024   208.7053 C1            1 RES     
   23858 C0        -326.8905   -98.6944   206.9289 C0            1 RES     
   23859 C0        -326.5034   -99.6296   208.1819 C0            1 RES     
   23860 C0        -326.1110   -98.8918   209.5007 C0            1 RES     
   23861 C0        -327.0244   -99.3121   210.6678 C0            1 RES     
   23862 C0        -326.8222   -98.4916   211.9545 C0            1 RES     
   23863 C0        -327.7027   -99.0736   213.0767 C0            1 RES     
   23864 C0        -327.7197   -98.2017   214.3385 C0            1 RES     
   23865 C0        -328.5797   -98.8481   215.4270 C0            1 RES     
   23866 C0        -325.2831  -100.5129   207.6627 C0            1 RES     
   23867 C0        -324.4920  -101.5925   208.4661 C0            1 RES     
   23868 C0        -323.3430  -101.1001   209.3987 C0            1 RES     
   23869 C0        -322.2231  -102.1759   209.5439 C0            1 RES     
   23870 C0        -321.0110  -101.7009   210.3720 C0            1 RES     
   23871 C0        -319.7127  -102.5106   210.1186 C0            1 RES     
   23872 C0        -319.8035  -104.0172   210.4017 C0            1 RES     
   23873 C0        -318.4489  -104.6961   210.1570 C0            1 RES     
   23874 C0        -326.7510   -96.4950   205.7718 C0            1 RES     
   23875 C0        -325.7422   -96.8587   204.5322 C0            1 RES     
   23876 C0        -324.7337   -98.0280   204.8735 C0            1 RES     
   23877 C0        -323.5338   -98.2669   203.9626 C0            1 RES     
   23878 C0        -322.5217   -99.3140   204.4616 C0            1 RES     
   23879 C0        -323.0450  -100.7613   204.3543 C0            1 RES     
   23880 C0        -321.9032  -101.7938   204.3467 C0            1 RES     
   23881 C0        -321.1394  -101.8755   205.6570 C0            1 RES     
   23882 C0        -326.3045   -96.9283   203.0398 C0            1 RES     
   23883 C0        -325.2373   -96.4312   201.9920 C0            1 RES     
   23884 C0        -325.5327   -96.2218   200.4812 C0            1 RES     
   23885 C0        -325.3767   -97.4301   199.5005 C0            1 RES     
   23886 C0        -324.8770   -96.8902   198.1243 C0            1 RES     
   23887 C0        -324.6271   -97.9213   197.0025 C0            1 RES     
   23888 C0        -323.8972   -97.2258   195.8259 C0            1 RES     
   23889 C0        -323.6510   -98.1438   194.6295 C0            1 RES     
   23890 H4        -328.8902   -96.4642   203.8541 H4            1 RES     
   23891 H5        -329.8361   -95.3256   202.2905 H5            1 RES     
   23892 H4        -326.8176   -95.9356   208.8536 H4            1 RES     
   23893 H6        -327.0789   -99.4321   206.1198 H6            1 RES     
   23894 H6        -325.9034   -98.2780   206.9202 H6            1 RES     
   23895 H6        -327.3534  -100.3167   208.3880 H6            1 RES     
   23896 H6        -325.0625   -99.0866   209.7892 H6            1 RES     
   23897 H6        -326.1130   -97.8178   209.3553 H6            1 RES     
   23898 H6        -328.0859   -99.1851   210.3607 H6            1 RES     
   23899 H6        -326.8367  -100.3886   210.8761 H6            1 RES     
   23900 H6        -325.7584   -98.5100   212.2789 H6            1 RES     
   23901 H6        -327.1146   -97.4381   211.7489 H6            1 RES     
   23902 H6        -327.3258  -100.0897   213.3307 H6            1 RES     
   23903 H6        -328.7500   -99.1641   212.7142 H6            1 RES     
   23904 H6        -326.6895   -98.0602   214.7297 H6            1 RES     
   23905 H6        -328.1487   -97.2065   214.0884 H6            1 RES     
   23906 H6        -329.6166   -99.0103   215.0609 H6            1 RES     
   23907 H6        -328.1478   -99.8267   215.7282 H6            1 RES     
   23908 H6        -328.6211   -98.1899   216.3203 H6            1 RES     
   23909 H6        -325.7001  -101.0669   206.7932 H6            1 RES     
   23910 H6        -324.4908   -99.8425   207.2614 H6            1 RES     
   23911 H6        -325.1477  -102.3389   208.9578 H6            1 RES     
   23912 H6        -323.9600  -102.1331   207.6513 H6            1 RES     
   23913 H6        -322.8518  -100.2221   208.9213 H6            1 RES     
   23914 H6        -323.7373  -100.7929   210.3885 H6            1 RES     
   23915 H6        -322.6190  -103.1251   209.9628 H6            1 RES     
   23916 H6        -321.8426  -102.3884   208.5335 H6            1 RES     
   23917 H6        -320.7594  -100.6584   210.0776 H6            1 RES     
   23918 H6        -321.2768  -101.6978   211.4504 H6            1 RES     
   23919 H6        -318.9109  -102.0761   210.7559 H6            1 RES     
   23920 H6        -319.4088  -102.3736   209.0566 H6            1 RES     
   23921 H6        -320.5536  -104.4805   209.7266 H6            1 RES     
   23922 H6        -320.1049  -104.1889   211.4558 H6            1 RES     
   23923 H6        -317.6752  -104.2798   210.8379 H6            1 RES     
   23924 H6        -318.1162  -104.5475   209.1066 H6            1 RES     
   23925 H6        -318.5298  -105.7877   210.3462 H6            1 RES     
   23926 H6        -327.2961   -95.5703   205.4810 H6            1 RES     
   23927 H6        -326.0553   -96.1600   206.5749 H6            1 RES     
   23928 H6        -325.1275   -95.9325   204.5238 H6            1 RES     
   23929 H6        -325.2771   -98.9907   204.9189 H6            1 RES     
   23930 H6        -324.2596   -97.7663   205.8437 H6            1 RES     
   23931 H6        -323.8763   -98.6517   202.9859 H6            1 RES     
   23932 H6        -322.9943   -97.2998   203.8668 H6            1 RES     
   23933 H6        -321.6588   -99.2267   203.7680 H6            1 RES     
   23934 H6        -322.1590   -99.0815   205.4877 H6            1 RES     
   23935 H6        -323.5481  -100.8814   203.3715 H6            1 RES     
   23936 H6        -323.7914  -100.9799   205.1469 H6            1 RES     
   23937 H6        -321.1944  -101.5469   203.5265 H6            1 RES     
   23938 H6        -322.3308  -102.7981   204.1370 H6            1 RES     
   23939 H6        -320.3272  -102.6286   205.5673 H6            1 RES     
   23940 H6        -321.8420  -102.2052   206.4356 H6            1 RES     
   23941 H6        -320.6876  -100.9009   205.9332 H6            1 RES     
   23942 H6        -326.7355   -97.9276   202.8112 H6            1 RES     
   23943 H6        -327.0885   -96.1620   202.9274 H6            1 RES     
   23944 H6        -324.9729   -95.4164   202.3596 H6            1 RES     
   23945 H6        -324.3011   -96.9793   201.9869 H6            1 RES     
   23946 H6        -324.6929   -95.5440   200.2075 H6            1 RES     
   23947 H6        -326.4586   -95.6416   200.2877 H6            1 RES     
   23948 H6        -326.3293   -97.9976   199.4199 H6            1 RES     
   23949 H6        -324.5852   -98.1206   199.8650 H6            1 RES     
   23950 H6        -323.8963   -96.3997   198.3190 H6            1 RES     
   23951 H6        -325.5813   -96.1208   197.7410 H6            1 RES     
   23952 H6        -325.5971   -98.3435   196.6619 H6            1 RES     
   23953 H6        -323.9824   -98.7483   197.3717 H6            1 RES     
   23954 H6        -322.9085   -96.8571   196.1815 H6            1 RES     
   23955 H6        -324.4875   -96.3525   195.4736 H6            1 RES     
   23956 H6        -324.6146   -98.4825   194.1958 H6            1 RES     
   23957 H6        -323.0423   -99.0244   194.9228 H6            1 RES     
   23958 H6        -323.0950   -97.5819   193.8454 H6            1 RES     
   23959 C0        -326.4851   -89.2885   215.6526 C0            1 RES     
   23960 C1        -327.7547   -88.7816   215.6589 C1            1 RES     
   23961 C1        -328.6917   -89.6878   216.0017 C1            1 RES     
   23962 C1        -328.1744   -90.8615   216.1894 C1            1 RES     
   23963 C1        -326.7209   -90.8244   215.9509 C1            1 RES     
   23964 C1        -326.7635   -91.7721   214.7616 C1            1 RES     
   23965 C1        -327.8871   -92.5325   214.6114 C1            1 RES     
   23966 S2        -329.0559   -92.3720   216.0037 S2            1 RES     
   23967 C1        -328.1694   -93.3812   213.3785 C1            1 RES     
   23968 C1        -327.1357   -93.7087   212.4524 C1            1 RES     
   23969 N3        -327.3844   -94.4478   211.3326 N3            1 RES     
   23970 C1        -328.6175   -94.8999   211.0124 C1            1 RES     
   23971 C1        -329.6805   -94.6022   211.8558 C1            1 RES     
   23972 C1        -329.4595   -93.8474   213.0479 C1            1 RES     
   23973 N3        -330.5810   -93.6103   213.7851 N3            1 RES     
   23974 S2        -331.7657   -94.3632   212.9053 S2            1 RES     
   23975 N3        -330.9558   -94.9890   211.6091 N3            1 RES     
   23976 S2        -330.2589   -89.1111   215.8891 S2            1 RES     
   23977 C1        -329.7354   -87.5834   215.3799 C1            1 RES     
   23978 C1        -328.3404   -87.5687   215.2595 C1            1 RES     
   23979 C0        -325.6608   -88.4818   216.7681 C0            1 RES     
   23980 C0        -325.8135   -87.4393   217.9864 C0            1 RES     
   23981 C0        -326.6198   -86.1367   217.6854 C0            1 RES     
   23982 C0        -327.8185   -85.9892   218.6416 C0            1 RES     
   23983 C0        -328.7684   -84.8305   218.2888 C0            1 RES     
   23984 C0        -329.8570   -84.7125   219.3726 C0            1 RES     
   23985 C0        -330.9638   -83.7164   219.0046 C0            1 RES     
   23986 C0        -331.9936   -83.6163   220.1323 C0            1 RES     
   23987 C0        -324.3169   -87.0768   218.3956 C0            1 RES     
   23988 C0        -323.8584   -86.0935   219.5179 C0            1 RES     
   23989 C0        -323.8087   -84.5740   219.1702 C0            1 RES     
   23990 C0        -322.7185   -83.8318   220.0027 C0            1 RES     
   23991 C0        -322.5542   -82.3453   219.6235 C0            1 RES     
   23992 C0        -321.1931   -81.7303   220.0414 C0            1 RES     
   23993 C0        -320.8745   -81.7802   221.5428 C0            1 RES     
   23994 C0        -319.5276   -81.1038   221.8327 C0            1 RES     
   23995 C0        -325.6651   -88.9339   214.3203 C0            1 RES     
   23996 C0        -324.0662   -89.1653   214.0436 C0            1 RES     
   23997 C0        -323.1395   -88.3721   215.0501 C0            1 RES     
   23998 C0        -321.6546   -88.2218   214.7354 C0            1 RES     
   23999 C0        -320.8672   -87.2986   215.6826 C0            1 RES     
   24000 C0        -320.6334   -87.9179   217.0762 C0            1 RES     
   24001 C0        -319.4501   -87.2639   217.8124 C0            1 RES     
   24002 C0        -319.6895   -85.8134   218.1943 C0            1 RES     
   24003 C0        -323.5187   -90.6252   213.7013 C0            1 RES     
   24004 C0        -322.3139   -90.5719   212.6866 C0            1 RES     
   24005 C0        -321.6715   -91.8255   212.0314 C0            1 RES     
   24006 C0        -320.5159   -92.5676   212.7797 C0            1 RES     
   24007 C0        -319.5222   -93.1347   211.7185 C0            1 RES     
   24008 C0        -318.2797   -93.8902   212.2378 C0            1 RES     
   24009 C0        -317.3049   -94.1366   211.0589 C0            1 RES     
   24010 C0        -316.0610   -94.9335   211.4492 C0            1 RES     
   24011 H4        -325.9958   -91.7734   214.0330 H4            1 RES     
   24012 H5        -326.1182   -93.3975   212.6247 H5            1 RES     
   24013 H4        -327.8069   -86.7152   214.8723 H4            1 RES     
   24014 H6        -325.0245   -89.2806   217.2056 H6            1 RES     
   24015 H6        -325.1193   -87.7540   216.1982 H6            1 RES     
   24016 H6        -326.2804   -87.9659   218.8477 H6            1 RES     
   24017 H6        -325.9921   -85.2314   217.7687 H6            1 RES     
   24018 H6        -326.9280   -86.1070   216.6468 H6            1 RES     
   24019 H6        -328.4188   -86.9252   218.6168 H6            1 RES     
   24020 H6        -327.4180   -85.8461   219.6696 H6            1 RES     
   24021 H6        -328.2171   -83.8669   218.2191 H6            1 RES     
   24022 H6        -329.2352   -85.0469   217.3024 H6            1 RES     
   24023 H6        -329.3746   -84.3986   220.3254 H6            1 RES     
   24024 H6        -330.3332   -85.7054   219.5264 H6            1 RES     
   24025 H6        -330.5359   -82.7084   218.8168 H6            1 RES     
   24026 H6        -331.4773   -84.0662   218.0821 H6            1 RES     
   24027 H6        -332.4340   -84.6137   220.3490 H6            1 RES     
   24028 H6        -331.5156   -83.2262   221.0565 H6            1 RES     
   24029 H6        -332.8127   -82.9264   219.8395 H6            1 RES     
   24030 H6        -323.8710   -88.0535   218.6857 H6            1 RES     
   24031 H6        -323.7644   -86.7313   217.4935 H6            1 RES     
   24032 H6        -324.3428   -86.2898   220.4956 H6            1 RES     
   24033 H6        -322.7879   -86.3740   219.6381 H6            1 RES     
   24034 H6        -323.4966   -84.4647   218.1069 H6            1 RES     
   24035 H6        -324.8043   -84.1030   219.2993 H6            1 RES     
   24036 H6        -322.9019   -83.9259   221.0939 H6            1 RES     
   24037 H6        -321.7549   -84.3151   219.7819 H6            1 RES     
   24038 H6        -322.5824   -82.2504   218.5159 H6            1 RES     
   24039 H6        -323.4021   -81.7605   220.0392 H6            1 RES     
   24040 H6        -321.1837   -80.6682   219.7104 H6            1 RES     
   24041 H6        -320.3803   -82.2595   219.4952 H6            1 RES     
   24042 H6        -320.8140   -82.8373   221.8778 H6            1 RES     
   24043 H6        -321.6679   -81.2593   222.1177 H6            1 RES     
   24044 H6        -319.5579   -80.0323   221.5386 H6            1 RES     
   24045 H6        -318.7060   -81.6034   221.2745 H6            1 RES     
   24046 H6        -319.2976   -81.1618   222.9178 H6            1 RES     
   24047 H6        -326.2088   -89.4016   213.4703 H6            1 RES     
   24048 H6        -325.7948   -87.8394   214.1574 H6            1 RES     
   24049 H6        -323.9731   -88.6305   213.0735 H6            1 RES     
   24050 H6        -323.1921   -88.8358   216.0533 H6            1 RES     
   24051 H6        -323.4994   -87.3210   215.0530 H6            1 RES     
   24052 H6        -321.1534   -89.2022   214.8191 H6            1 RES     
   24053 H6        -321.5755   -87.7962   213.7117 H6            1 RES     
   24054 H6        -319.8712   -87.1855   215.2044 H6            1 RES     
   24055 H6        -321.3284   -86.2882   215.7523 H6            1 RES     
   24056 H6        -320.3382   -88.9803   216.9437 H6            1 RES     
   24057 H6        -321.5602   -87.8965   217.6874 H6            1 RES     
   24058 H6        -318.5431   -87.3274   217.1726 H6            1 RES     
   24059 H6        -319.2500   -87.8345   218.7451 H6            1 RES     
   24060 H6        -318.7892   -85.4106   218.7063 H6            1 RES     
   24061 H6        -320.5361   -85.7857   218.8950 H6            1 RES     
   24062 H6        -319.9024   -85.1825   217.3072 H6            1 RES     
   24063 H6        -323.3112   -91.2109   214.6236 H6            1 RES     
   24064 H6        -324.2802   -91.1508   213.1027 H6            1 RES     
   24065 H6        -322.7287   -90.0002   211.8286 H6            1 RES     
   24066 H6        -321.4545   -89.9974   213.0158 H6            1 RES     
   24067 H6        -321.1669   -91.3554   211.1575 H6            1 RES     
   24068 H6        -322.4139   -92.5302   211.6029 H6            1 RES     
   24069 H6        -320.9228   -93.3540   213.4517 H6            1 RES     
   24070 H6        -319.9316   -91.8478   213.3934 H6            1 RES     
   24071 H6        -319.1371   -92.2571   211.1512 H6            1 RES     
   24072 H6        -320.0631   -93.7978   211.0095 H6            1 RES     
   24073 H6        -318.5931   -94.8557   212.6903 H6            1 RES     
   24074 H6        -317.7506   -93.2855   213.0061 H6            1 RES     
   24075 H6        -316.9679   -93.1543   210.6573 H6            1 RES     
   24076 H6        -317.8235   -94.6859   210.2436 H6            1 RES     
   24077 H6        -316.3436   -95.9506   211.7916 H6            1 RES     
   24078 H6        -315.4907   -94.4146   212.2475 H6            1 RES     
   24079 H6        -315.3991   -95.0374   210.5599 H6            1 RES     
   24080 C0        -334.1932   -80.8108   211.0155 C0            1 RES     
   24081 C1        -335.2711   -81.6198   210.7867 C1            1 RES     
   24082 C1        -335.8020   -82.1366   211.9127 C1            1 RES     
   24083 C1        -335.1227   -81.7926   212.9619 C1            1 RES     
   24084 C1        -333.9745   -80.9538   212.5761 C1            1 RES     
   24085 C1        -332.9258   -81.9489   213.0498 C1            1 RES     
   24086 C1        -333.3385   -82.9273   213.9074 C1            1 RES     
   24087 S2        -335.0679   -82.7231   214.4533 S2            1 RES     
   24088 C1        -332.4672   -84.1066   214.3196 C1            1 RES     
   24089 C1        -331.0563   -84.0930   214.1122 C1            1 RES     
   24090 N3        -330.2711   -85.1549   214.4559 N3            1 RES     
   24091 C1        -330.7698   -86.2914   214.9917 C1            1 RES     
   24092 C1        -332.1395   -86.3878   215.2037 C1            1 RES     
   24093 C1        -332.9940   -85.2916   214.8755 C1            1 RES     
   24094 N3        -334.3171   -85.5116   215.1178 N3            1 RES     
   24095 S2        -334.3280   -87.0509   215.7301 S2            1 RES     
   24096 N3        -332.7368   -87.4929   215.7124 N3            1 RES     
   24097 S2        -337.0407   -83.2271   211.6342 S2            1 RES     
   24098 C1        -336.9261   -83.0366   209.9555 C1            1 RES     
   24099 C1        -335.8829   -82.1568   209.6416 C1            1 RES     
   24100 C0        -334.5984   -79.3460   210.5013 C0            1 RES     
   24101 C0        -335.8364   -78.4532   209.9865 C0            1 RES     
   24102 C0        -336.6956   -79.0613   208.8334 C0            1 RES     
   24103 C0        -338.1737   -79.1899   209.2476 C0            1 RES     
   24104 C0        -339.0485   -79.9522   208.2360 C0            1 RES     
   24105 C0        -340.5171   -79.9176   208.7005 C0            1 RES     
   24106 C0        -341.4322   -80.8194   207.8628 C0            1 RES     
   24107 C0        -342.8800   -80.7152   208.3479 C0            1 RES     
   24108 C0        -335.1750   -77.0825   209.5146 C0            1 RES     
   24109 C0        -335.9052   -75.8434   208.9079 C0            1 RES     
   24110 C0        -336.2176   -75.8662   207.3801 C0            1 RES     
   24111 C0        -336.2398   -74.4272   206.7789 C0            1 RES     
   24112 C0        -336.4407   -74.3976   205.2495 C0            1 RES     
   24113 C0        -335.9725   -73.0827   204.5733 C0            1 RES     
   24114 C0        -336.6517   -71.7996   205.0740 C0            1 RES     
   24115 C0        -336.1377   -70.5780   204.3000 C0            1 RES     
   24116 C0        -332.9343   -81.1486   210.0805 C0            1 RES     
   24117 C0        -331.5621   -80.2702   209.9019 C0            1 RES     
   24118 C0        -331.8240   -78.8139   209.3438 C0            1 RES     
   24119 C0        -330.6489   -77.9934   208.8218 C0            1 RES     
   24120 C0        -331.0197   -76.6593   208.1494 C0            1 RES     
   24121 C0        -331.4822   -75.5830   209.1534 C0            1 RES     
   24122 C0        -331.3477   -74.1594   208.5832 C0            1 RES     
   24123 C0        -332.2839   -73.8710   207.4224 C0            1 RES     
   24124 C0        -330.4314   -80.3187   211.0278 C0            1 RES     
   24125 C0        -328.9872   -80.2024   210.4075 C0            1 RES     
   24126 C0        -327.6744   -80.3822   211.2186 C0            1 RES     
   24127 C0        -327.0519   -79.1441   211.9434 C0            1 RES     
   24128 C0        -325.4980   -79.2845   211.9180 C0            1 RES     
   24129 C0        -324.6695   -78.1510   212.5607 C0            1 RES     
   24130 C0        -323.1748   -78.3480   212.2031 C0            1 RES     
   24131 C0        -322.2509   -77.3107   212.8396 C0            1 RES     
   24132 H4        -331.9423   -81.9376   212.6590 H4            1 RES     
   24133 H5        -330.5657   -83.2285   213.6956 H5            1 RES     
   24134 H4        -335.5875   -81.9570   208.6239 H4            1 RES     
   24135 H6        -334.1274   -78.6949   211.2685 H6            1 RES     
   24136 H6        -334.1391   -79.2865   209.5352 H6            1 RES     
   24137 H6        -336.4964   -78.2284   210.8530 H6            1 RES     
   24138 H6        -336.6419   -78.4549   207.9116 H6            1 RES     
   24139 H6        -336.2853   -80.0101   208.5078 H6            1 RES     
   24140 H6        -338.2329   -79.7395   210.2127 H6            1 RES     
   24141 H6        -338.5768   -78.1633   209.3933 H6            1 RES     
   24142 H6        -338.9759   -79.5002   207.2223 H6            1 RES     
   24143 H6        -338.6903   -81.0041   208.1844 H6            1 RES     
   24144 H6        -340.8798   -78.8665   208.6480 H6            1 RES     
   24145 H6        -340.5780   -80.2614   209.7562 H6            1 RES     
   24146 H6        -341.3897   -80.5311   206.7906 H6            1 RES     
   24147 H6        -341.0966   -81.8748   207.9645 H6            1 RES     
   24148 H6        -342.9527   -80.9900   209.4225 H6            1 RES     
   24149 H6        -343.2563   -79.6779   208.2161 H6            1 RES     
   24150 H6        -343.5273   -81.4030   207.7644 H6            1 RES     
   24151 H6        -334.6811   -76.6903   210.4306 H6            1 RES     
   24152 H6        -334.3634   -77.3000   208.7849 H6            1 RES     
   24153 H6        -336.7705   -75.5064   209.5134 H6            1 RES     
   24154 H6        -335.1274   -75.0534   209.0086 H6            1 RES     
   24155 H6        -335.3881   -76.3941   206.8575 H6            1 RES     
   24156 H6        -337.1661   -76.4030   207.1754 H6            1 RES     
   24157 H6        -337.0021   -73.7887   207.2732 H6            1 RES     
   24158 H6        -335.2529   -73.9794   206.9696 H6            1 RES     
   24159 H6        -335.8164   -75.1939   204.7883 H6            1 RES     
   24160 H6        -337.5036   -74.6140   205.0107 H6            1 RES     
   24161 H6        -336.1547   -73.1788   203.4799 H6            1 RES     
   24162 H6        -334.8745   -72.9765   204.7227 H6            1 RES     
   24163 H6        -336.4251   -71.6518   206.1510 H6            1 RES     
   24164 H6        -337.7507   -71.8730   204.9384 H6            1 RES     
   24165 H6        -336.3737   -70.6740   203.2180 H6            1 RES     
   24166 H6        -335.0372   -70.4706   204.4164 H6            1 RES     
   24167 H6        -336.6207   -69.6536   204.6821 H6            1 RES     
   24168 H6        -332.6208   -82.1881   210.3214 H6            1 RES     
   24169 H6        -333.3287   -81.2171   209.0409 H6            1 RES     
   24170 H6        -331.0996   -80.8297   209.0601 H6            1 RES     
   24171 H6        -332.3047   -78.1940   210.1241 H6            1 RES     
   24172 H6        -332.4649   -78.9287   208.4435 H6            1 RES     
   24173 H6        -329.9885   -77.7104   209.6603 H6            1 RES     
   24174 H6        -330.1231   -78.6145   208.0646 H6            1 RES     
   24175 H6        -330.0723   -76.2976   207.6966 H6            1 RES     
   24176 H6        -331.7573   -76.8016   207.3283 H6            1 RES     
   24177 H6        -330.8029   -75.6065   210.0317 H6            1 RES     
   24178 H6        -332.5123   -75.7853   209.5150 H6            1 RES     
   24179 H6        -330.2983   -73.9964   208.2542 H6            1 RES     
   24180 H6        -331.5692   -73.4285   209.3908 H6            1 RES     
   24181 H6        -332.1171   -72.8340   207.0594 H6            1 RES     
   24182 H6        -333.3152   -73.9533   207.7940 H6            1 RES     
   24183 H6        -332.1216   -74.5707   206.5772 H6            1 RES     
   24184 H6        -330.6357   -79.5920   211.8444 H6            1 RES     
   24185 H6        -330.4028   -81.3369   211.4484 H6            1 RES     
   24186 H6        -328.9619   -81.0283   209.6643 H6            1 RES     
   24187 H6        -328.8003   -79.3023   209.8314 H6            1 RES     
   24188 H6        -326.9594   -80.5971   210.3926 H6            1 RES     
   24189 H6        -327.6706   -81.2885   211.8588 H6            1 RES     
   24190 H6        -327.4582   -79.0452   212.9735 H6            1 RES     
   24191 H6        -327.2852   -78.2132   211.3820 H6            1 RES     
   24192 H6        -325.2047   -79.3125   210.8440 H6            1 RES     
   24193 H6        -325.1968   -80.2461   212.3865 H6            1 RES     
   24194 H6        -324.8097   -78.1663   213.6631 H6            1 RES     
   24195 H6        -324.9936   -77.1626   212.1685 H6            1 RES     
   24196 H6        -323.0554   -78.2781   211.0982 H6            1 RES     
   24197 H6        -322.8349   -79.3557   212.5263 H6            1 RES     
   24198 H6        -322.2833   -77.3895   213.9460 H6            1 RES     
   24199 H6        -322.5331   -76.2832   212.5290 H6            1 RES     
   24200 H6        -321.2050   -77.4997   212.5079 H6            1 RES     
   24201 C0        -339.8632   -88.3752   203.0519 C0            1 RES     
   24202 C1        -340.1779   -89.3841   203.9189 C1            1 RES     
   24203 C1        -341.0485   -89.0138   204.8789 C1            1 RES     
   24204 C1        -341.3438   -87.7543   204.7951 C1            1 RES     
   24205 C1        -340.6143   -87.1307   203.6772 C1            1 RES     
   24206 C1        -339.8049   -86.1937   204.5610 C1            1 RES     
   24207 C1        -340.2582   -85.9906   205.8324 C1            1 RES     
   24208 S2        -341.8766   -86.7709   206.1524 S2            1 RES     
   24209 C1        -339.4671   -85.2430   206.8978 C1            1 RES     
   24210 C1        -338.3591   -84.4144   206.5522 C1            1 RES     
   24211 N3        -337.6295   -83.7603   207.5020 N3            1 RES     
   24212 C1        -337.8874   -83.8657   208.8249 C1            1 RES     
   24213 C1        -338.9388   -84.6729   209.2407 C1            1 RES     
   24214 C1        -339.7390   -85.3596   208.2774 C1            1 RES     
   24215 N3        -340.7309   -86.1286   208.8088 N3            1 RES     
   24216 S2        -340.5464   -85.8930   210.4382 S2            1 RES     
   24217 N3        -339.2606   -84.8618   210.5436 N3            1 RES     
   24218 S2        -341.3413   -90.2045   206.0181 S2            1 RES     
   24219 C1        -340.3024   -91.2968   205.2468 C1            1 RES     
   24220 C1        -339.7055   -90.6895   204.1353 C1            1 RES     
   24221 C0        -340.3714   -88.8377   201.6020 C0            1 RES     
   24222 C0        -341.2501   -89.9476   200.8334 C0            1 RES     
   24223 C0        -340.9194   -91.4385   201.1585 C0            1 RES     
   24224 C0        -342.1588   -92.1807   201.6932 C0            1 RES     
   24225 C0        -341.8690   -93.6009   202.2116 C0            1 RES     
   24226 C0        -343.1926   -94.2802   202.6116 C0            1 RES     
   24227 C0        -342.9860   -95.6220   203.3254 C0            1 RES     
   24228 C0        -344.3335   -96.2636   203.6645 C0            1 RES     
   24229 C0        -341.0041   -89.6550   199.2866 C0            1 RES     
   24230 C0        -341.5994   -90.4361   198.0733 C0            1 RES     
   24231 C0        -340.8727   -91.7428   197.6294 C0            1 RES     
   24232 C0        -341.0504   -92.0059   196.1024 C0            1 RES     
   24233 C0        -340.2642   -93.2301   195.5889 C0            1 RES     
   24234 C0        -340.0074   -93.2234   194.0593 C0            1 RES     
   24235 C0        -341.2620   -93.1753   193.1752 C0            1 RES     
   24236 C0        -340.8789   -93.2182   191.6896 C0            1 RES     
   24237 C0        -338.2859   -88.2137   202.8091 C0            1 RES     
   24238 C0        -337.5414   -87.2829   201.6841 C0            1 RES     
   24239 C0        -337.9193   -87.6788   200.2003 C0            1 RES     
   24240 C0        -337.0807   -87.1359   199.0476 C0            1 RES     
   24241 C0        -337.4196   -87.7037   197.6575 C0            1 RES     
   24242 C0        -338.7551   -87.1733   197.0958 C0            1 RES     
   24243 C0        -338.8366   -87.3081   195.5644 C0            1 RES     
   24244 C0        -338.8856   -88.7453   195.0754 C0            1 RES     
   24245 C0        -337.4235   -85.7062   201.9040 C0            1 RES     
   24246 C0        -336.0770   -85.1357   201.3162 C0            1 RES     
   24247 C0        -335.5905   -83.6738   201.5157 C0            1 RES     
   24248 C0        -336.0564   -82.5724   200.5078 C0            1 RES     
   24249 C0        -334.9031   -81.5347   200.3396 C0            1 RES     
   24250 C0        -335.1361   -80.3626   199.3618 C0            1 RES     
   24251 C0        -333.7998   -79.6095   199.1432 C0            1 RES     
   24252 C0        -333.9269   -78.3880   198.2340 C0            1 RES     
   24253 H4        -338.8822   -85.7911   204.2341 H4            1 RES     
   24254 H5        -338.0797   -84.2638   205.5222 H5            1 RES     
   24255 H4        -338.9489   -91.1851   203.5480 H4            1 RES     
   24256 H6        -340.7526   -87.8844   201.1775 H6            1 RES     
   24257 H6        -339.4802   -89.2009   201.1312 H6            1 RES     
   24258 H6        -342.3253   -89.7583   201.0456 H6            1 RES     
   24259 H6        -340.5404   -91.9818   200.2744 H6            1 RES     
   24260 H6        -340.0833   -91.5058   201.8447 H6            1 RES     
   24261 H6        -342.5890   -91.6032   202.5409 H6            1 RES     
   24262 H6        -342.9083   -92.2268   200.8725 H6            1 RES     
   24263 H6        -341.3635   -94.2160   201.4348 H6            1 RES     
   24264 H6        -341.1991   -93.5220   203.0963 H6            1 RES     
   24265 H6        -343.8014   -94.4365   201.6929 H6            1 RES     
   24266 H6        -343.7555   -93.6136   203.3009 H6            1 RES     
   24267 H6        -342.4055   -96.3200   202.6851 H6            1 RES     
   24268 H6        -342.4247   -95.4499   204.2700 H6            1 RES     
   24269 H6        -344.9417   -95.5830   204.2990 H6            1 RES     
   24270 H6        -344.8982   -96.4874   202.7338 H6            1 RES     
   24271 H6        -344.1746   -97.2125   204.2185 H6            1 RES     
   24272 H6        -341.3651   -88.6124   199.1472 H6            1 RES     
   24273 H6        -339.9095   -89.6413   199.0864 H6            1 RES     
   24274 H6        -342.6994   -90.5605   198.1309 H6            1 RES     
   24275 H6        -341.4088   -89.7281   197.2356 H6            1 RES     
   24276 H6        -339.7781   -91.6081   197.7826 H6            1 RES     
   24277 H6        -341.2122   -92.6110   198.2299 H6            1 RES     
   24278 H6        -342.1214   -92.1005   195.8251 H6            1 RES     
   24279 H6        -340.6427   -91.1323   195.5719 H6            1 RES     
   24280 H6        -339.2516   -93.2271   196.0485 H6            1 RES     
   24281 H6        -340.7808   -94.1615   195.9039 H6            1 RES     
   24282 H6        -339.4291   -94.1399   193.8074 H6            1 RES     
   24283 H6        -339.3709   -92.3452   193.8087 H6            1 RES     
   24284 H6        -341.8183   -92.2332   193.3655 H6            1 RES     
   24285 H6        -341.9198   -94.0402   193.4005 H6            1 RES     
   24286 H6        -340.3452   -94.1638   191.4515 H6            1 RES     
   24287 H6        -340.2208   -92.3617   191.4261 H6            1 RES     
   24288 H6        -341.7915   -93.1640   191.0587 H6            1 RES     
   24289 H6        -337.8311   -87.9559   203.7907 H6            1 RES     
   24290 H6        -337.8989   -89.2351   202.5896 H6            1 RES     
   24291 H6        -336.4959   -87.6330   201.8252 H6            1 RES     
   24292 H6        -338.9620   -87.3775   199.9857 H6            1 RES     
   24293 H6        -337.7730   -88.7770   200.1170 H6            1 RES     
   24294 H6        -337.2376   -86.0471   198.9513 H6            1 RES     
   24295 H6        -336.0202   -87.3897   199.2628 H6            1 RES     
   24296 H6        -336.6134   -87.3264   196.9934 H6            1 RES     
   24297 H6        -337.3793   -88.8157   197.6446 H6            1 RES     
   24298 H6        -338.8102   -86.0816   197.2920 H6            1 RES     
   24299 H6        -339.6220   -87.6528   197.5973 H6            1 RES     
   24300 H6        -337.9617   -86.7970   195.1068 H6            1 RES     
   24301 H6        -339.7559   -86.7944   195.2089 H6            1 RES     
   24302 H6        -338.9290   -88.7586   193.9651 H6            1 RES     
   24303 H6        -339.8037   -89.2034   195.4701 H6            1 RES     
   24304 H6        -337.9961   -89.3227   195.4004 H6            1 RES     
   24305 H6        -338.3348   -85.1748   201.5522 H6            1 RES     
   24306 H6        -337.2859   -85.5145   202.9805 H6            1 RES     
   24307 H6        -335.2992   -85.7509   201.8179 H6            1 RES     
   24308 H6        -335.9252   -85.3040   200.2553 H6            1 RES     
   24309 H6        -334.5054   -83.7950   201.2980 H6            1 RES     
   24310 H6        -335.6461   -83.3288   202.5689 H6            1 RES     
   24311 H6        -337.0081   -82.1072   200.8448 H6            1 RES     
   24312 H6        -336.2186   -83.0167   199.5015 H6            1 RES     
   24313 H6        -334.0296   -82.1004   199.9433 H6            1 RES     
   24314 H6        -334.6253   -81.1135   201.3298 H6            1 RES     
   24315 H6        -335.9043   -79.6764   199.7793 H6            1 RES     
   24316 H6        -335.4867   -80.7420   198.3774 H6            1 RES     
   24317 H6        -333.0649   -80.3050   198.6784 H6            1 RES     
   24318 H6        -333.3888   -79.2708   200.1188 H6            1 RES     
   24319 H6        -334.5987   -77.6323   198.6913 H6            1 RES     
   24320 H6        -334.3126   -78.6754   197.2338 H6            1 RES     
   24321 H6        -332.9230   -77.9254   198.1003 H6            1 RES     
   24322 C0        -336.1546   -98.9109   208.3464 C0            1 RES     
   24323 C1        -336.5340   -98.6373   209.6310 C1            1 RES     
   24324 C1        -337.8673   -98.5087   209.7802 C1            1 RES     
   24325 C1        -338.4867   -98.6145   208.6463 C1            1 RES     
   24326 C1        -337.5216   -98.8286   207.5538 C1            1 RES     
   24327 C1        -337.8433   -97.5226   206.8429 C1            1 RES     
   24328 C1        -339.0143   -96.9050   207.1753 C1            1 RES     
   24329 S2        -340.0536   -97.8928   208.3042 S2            1 RES     
   24330 C1        -339.3902   -95.5061   206.7044 C1            1 RES     
   24331 C1        -338.7096   -94.8829   205.6171 C1            1 RES     
   24332 N3        -339.0232   -93.6206   205.2043 N3            1 RES     
   24333 C1        -339.9754   -92.8699   205.8020 C1            1 RES     
   24334 C1        -340.6674   -93.4013   206.8832 C1            1 RES     
   24335 C1        -340.3829   -94.7261   207.3346 C1            1 RES     
   24336 N3        -341.1182   -95.1293   208.4090 N3            1 RES     
   24337 S2        -342.0748   -93.8119   208.7154 S2            1 RES     
   24338 N3        -341.6212   -92.7194   207.5629 N3            1 RES     
   24339 S2        -338.3311   -98.0489   211.3212 S2            1 RES     
   24340 C1        -336.7296   -98.0175   211.8703 C1            1 RES     
   24341 C1        -335.8551   -98.3205   210.8196 C1            1 RES     
   24342 C0        -335.4504  -100.3524   208.3706 C0            1 RES     
   24343 C0        -335.1840  -101.6458   209.2930 C0            1 RES     
   24344 C0        -334.6025  -101.3728   210.7160 C0            1 RES     
   24345 C0        -335.5226  -101.9411   211.8129 C0            1 RES     
   24346 C0        -335.1142  -101.5497   213.2446 C0            1 RES     
   24347 C0        -336.0338  -102.2644   214.2531 C0            1 RES     
   24348 C0        -335.8323  -101.7815   215.6948 C0            1 RES     
   24349 C0        -336.7451  -102.5513   216.6521 C0            1 RES     
   24350 C0        -334.1719  -102.5407   208.4484 C0            1 RES     
   24351 C0        -333.5561  -103.9139   208.8631 C0            1 RES     
   24352 C0        -332.2945  -103.8917   209.7796 C0            1 RES     
   24353 C0        -331.3855  -105.1348   209.5322 C0            1 RES     
   24354 C0        -330.0700  -105.1109   210.3380 C0            1 RES     
   24355 C0        -328.9555  -106.0218   209.7606 C0            1 RES     
   24356 C0        -329.3080  -107.5121   209.6467 C0            1 RES     
   24357 C0        -328.1138  -108.3107   209.1066 C0            1 RES     
   24358 C0        -334.9631   -97.9739   207.8216 C0            1 RES     
   24359 C0        -334.0965   -98.1442   206.4409 C0            1 RES     
   24360 C0        -333.3051   -99.5114   206.3678 C0            1 RES     
   24361 C0        -332.2127   -99.6850   205.3175 C0            1 RES     
   24362 C0        -331.3881  -100.9802   205.4276 C0            1 RES     
   24363 C0        -332.1725  -102.2362   204.9949 C0            1 RES     
   24364 C0        -331.2411  -103.3999   204.6100 C0            1 RES     
   24365 C0        -330.4457  -103.9622   205.7754 C0            1 RES     
   24366 C0        -334.7303   -97.7085   205.0420 C0            1 RES     
   24367 C0        -333.6395   -97.1255   204.0653 C0            1 RES     
   24368 C0        -333.9608   -96.4642   202.6967 C0            1 RES     
   24369 C0        -334.0747   -97.3657   201.4238 C0            1 RES     
   24370 C0        -333.5484   -96.5587   200.1962 C0            1 RES     
   24371 C0        -333.5441   -97.2692   198.8253 C0            1 RES     
   24372 C0        -332.7540   -96.4073   197.8085 C0            1 RES     
   24373 C0        -332.7359   -96.9895   196.3959 C0            1 RES     
   24374 H4        -337.1466   -97.0676   206.1888 H4            1 RES     
   24375 H5        -337.9385   -95.4045   205.0739 H5            1 RES     
   24376 H4        -334.7837   -98.2782   210.9345 H4            1 RES     
   24377 H6        -335.8081  -100.7986   207.4180 H6            1 RES     
   24378 H6        -334.4051  -100.1176   208.3784 H6            1 RES     
   24379 H6        -336.1353  -102.2138   209.3910 H6            1 RES     
   24380 H6        -333.5954  -101.8086   210.8434 H6            1 RES     
   24381 H6        -334.4140  -100.3149   210.8576 H6            1 RES     
   24382 H6        -336.5559  -101.5623   211.6510 H6            1 RES     
   24383 H6        -335.5263  -103.0491   211.7136 H6            1 RES     
   24384 H6        -334.0580  -101.8308   213.4513 H6            1 RES     
   24385 H6        -335.2175  -100.4471   213.3503 H6            1 RES     
   24386 H6        -335.8385  -103.3588   214.1956 H6            1 RES     
   24387 H6        -337.0955  -102.0788   213.9796 H6            1 RES     
   24388 H6        -334.7766  -101.9240   216.0107 H6            1 RES     
   24389 H6        -336.0825  -100.6996   215.7554 H6            1 RES     
   24390 H6        -337.8100  -102.4343   216.3555 H6            1 RES     
   24391 H6        -336.4867  -103.6322   216.6447 H6            1 RES     
   24392 H6        -336.6237  -102.1659   217.6863 H6            1 RES     
   24393 H6        -334.7232  -102.7587   207.5074 H6            1 RES     
   24394 H6        -333.2894  -101.9255   208.1638 H6            1 RES     
   24395 H6        -334.3143  -104.6483   209.2017 H6            1 RES     
   24396 H6        -333.1706  -104.2900   207.8888 H6            1 RES     
   24397 H6        -331.6731  -103.0096   209.5047 H6            1 RES     
   24398 H6        -332.5796  -103.8074   210.8479 H6            1 RES     
   24399 H6        -331.9291  -106.0841   209.7234 H6            1 RES     
   24400 H6        -331.0976  -105.1215   208.4703 H6            1 RES     
   24401 H6        -329.6452  -104.0837   210.3044 H6            1 RES     
   24402 H6        -330.2806  -105.3601   211.3997 H6            1 RES     
   24403 H6        -328.0590  -105.9166   210.4111 H6            1 RES     
   24404 H6        -328.6809  -105.6506   208.7477 H6            1 RES     
   24405 H6        -330.1608  -107.6428   208.9475 H6            1 RES     
   24406 H6        -329.5868  -107.9144   210.6426 H6            1 RES     
   24407 H6        -327.2462  -108.2301   209.7968 H6            1 RES     
   24408 H6        -327.8083  -107.9365   208.1052 H6            1 RES     
   24409 H6        -328.3848  -109.3836   209.0102 H6            1 RES     
   24410 H6        -335.3421   -96.9285   207.8357 H6            1 RES     
   24411 H6        -334.1815   -97.9910   208.6153 H6            1 RES     
   24412 H6        -333.3233   -97.3653   206.6175 H6            1 RES     
   24413 H6        -334.0133  -100.3469   206.2106 H6            1 RES     
   24414 H6        -332.7468   -99.6074   207.3236 H6            1 RES     
   24415 H6        -332.6648   -99.7255   204.3109 H6            1 RES     
   24416 H6        -331.5100   -98.8309   205.4279 H6            1 RES     
   24417 H6        -330.5568  -100.8489   204.7030 H6            1 RES     
   24418 H6        -330.9419  -101.1009   206.4399 H6            1 RES     
   24419 H6        -332.7339  -101.9978   204.0668 H6            1 RES     
   24420 H6        -332.9089  -102.5381   205.7692 H6            1 RES     
   24421 H6        -330.5377  -103.0575   203.8201 H6            1 RES     
   24422 H6        -331.8550  -104.2238   204.1859 H6            1 RES     
   24423 H6        -329.7905  -104.7844   205.4157 H6            1 RES     
   24424 H6        -331.1602  -104.3727   206.5030 H6            1 RES     
   24425 H6        -329.8104  -103.1886   206.2533 H6            1 RES     
   24426 H6        -335.3474   -98.5220   204.6014 H6            1 RES     
   24427 H6        -335.3647   -96.8229   205.2084 H6            1 RES     
   24428 H6        -333.1767   -96.3081   204.6591 H6            1 RES     
   24429 H6        -332.8211   -97.7972   203.8289 H6            1 RES     
   24430 H6        -333.0245   -95.8848   202.5322 H6            1 RES     
   24431 H6        -334.7725   -95.7094   202.7498 H6            1 RES     
   24432 H6        -335.1179   -97.7249   201.2875 H6            1 RES     
   24433 H6        -333.4074   -98.2500   201.5187 H6            1 RES     
   24434 H6        -332.4865   -96.3084   200.4194 H6            1 RES     
   24435 H6        -334.1165   -95.6090   200.0956 H6            1 RES     
   24436 H6        -334.5897   -97.4165   198.4788 H6            1 RES     
   24437 H6        -333.0457   -98.2599   198.9028 H6            1 RES     
   24438 H6        -331.6991   -96.3178   198.1535 H6            1 RES     
   24439 H6        -333.1896   -95.3863   197.7542 H6            1 RES     
   24440 H6        -333.7643   -97.0332   195.9812 H6            1 RES     
   24441 H6        -332.2863   -98.0042   196.3898 H6            1 RES     
   24442 H6        -332.1230   -96.3333   195.7375 H6            1 RES     
   24443 C0        -332.9235   -93.8991   219.1737 C0            1 RES     
   24444 C1        -334.0769   -93.2121   219.4319 C1            1 RES     
   24445 C1        -335.1475   -94.0108   219.6121 C1            1 RES     
   24446 C1        -334.8463   -95.2594   219.4366 C1            1 RES     
   24447 C1        -333.4233   -95.3975   219.0805 C1            1 RES     
   24448 C1        -333.6939   -95.9623   217.6941 C1            1 RES     
   24449 C1        -334.9436   -96.4571   217.4565 C1            1 RES     
   24450 S2        -335.9976   -96.4950   218.9458 S2            1 RES     
   24451 C1        -335.4335   -96.8768   216.0767 C1            1 RES     
   24452 C1        -334.5212   -97.1028   215.0041 C1            1 RES     
   24453 N3        -334.9528   -97.4553   213.7584 N3            1 RES     
   24454 C1        -336.2614   -97.5934   213.4485 C1            1 RES     
   24455 C1        -337.2117   -97.3680   214.4366 C1            1 RES     
   24456 C1        -336.8010   -97.0160   215.7584 C1            1 RES     
   24457 N3        -337.8248   -96.8094   216.6341 N3            1 RES     
   24458 S2        -339.1669   -97.0870   215.7034 S2            1 RES     
   24459 N3        -338.5463   -97.4574   214.2183 N3            1 RES     
   24460 S2        -336.5858   -93.1762   219.8023 S2            1 RES     
   24461 C1        -335.8148   -91.6750   219.6638 C1            1 RES     
   24462 C1        -334.4479   -91.8571   219.4208 C1            1 RES     
   24463 C0        -331.9147   -93.5761   220.3788 C0            1 RES     
   24464 C0        -331.8171   -92.8973   221.8363 C0            1 RES     
   24465 C0        -332.3836   -91.4480   221.9639 C0            1 RES     
   24466 C0        -333.4894   -91.3737   223.0338 C0            1 RES     
   24467 C0        -334.2259   -90.0230   223.0875 C0            1 RES     
   24468 C0        -335.2231   -90.0297   224.2618 C0            1 RES     
   24469 C0        -336.1441   -88.8032   224.2731 C0            1 RES     
   24470 C0        -337.0849   -88.8486   225.4793 C0            1 RES     
   24471 C0        -330.2621   -92.9118   222.1835 C0            1 RES     
   24472 C0        -329.5796   -92.3631   223.4757 C0            1 RES     
   24473 C0        -329.2680   -90.8361   223.5347 C0            1 RES     
   24474 C0        -328.0228   -90.5402   224.4262 C0            1 RES     
   24475 C0        -327.6063   -89.0547   224.4355 C0            1 RES     
   24476 C0        -326.1376   -88.8101   224.8698 C0            1 RES     
   24477 C0        -325.7646   -89.3215   226.2690 C0            1 RES     
   24478 C0        -324.3046   -88.9812   226.5978 C0            1 RES     
   24479 C0        -332.1147   -93.3323   217.9097 C0            1 RES     
   24480 C0        -330.6000   -93.7382   217.4329 C0            1 RES     
   24481 C0        -329.4981   -93.4149   218.5202 C0            1 RES     
   24482 C0        -328.0269   -93.4300   218.1176 C0            1 RES     
   24483 C0        -327.0406   -92.9443   219.1950 C0            1 RES     
   24484 C0        -326.8603   -93.9517   220.3495 C0            1 RES     
   24485 C0        -325.5444   -93.7282   221.1165 C0            1 RES     
   24486 C0        -325.4957   -92.4193   221.8855 C0            1 RES     
   24487 C0        -330.3461   -95.1176   216.6706 C0            1 RES     
   24488 C0        -329.2001   -94.9866   215.5966 C0            1 RES     
   24489 C0        -328.8296   -96.1003   214.5787 C0            1 RES     
   24490 C0        -327.7966   -97.1984   214.9945 C0            1 RES     
   24491 C0        -326.9739   -97.6079   213.7333 C0            1 RES     
   24492 C0        -325.8685   -98.6702   213.9176 C0            1 RES     
   24493 C0        -325.0110   -98.7404   212.6290 C0            1 RES     
   24494 C0        -323.9178   -99.8068   212.6783 C0            1 RES     
   24495 H4        -332.9739   -95.8898   216.9216 H4            1 RES     
   24496 H5        -333.4571   -97.0224   215.1554 H5            1 RES     
   24497 H4        -333.7852   -91.0298   219.2221 H4            1 RES     
   24498 H6        -331.4162   -94.5574   220.5302 H6            1 RES     
   24499 H6        -331.2756   -92.8190   219.9710 H6            1 RES     
   24500 H6        -332.3324   -93.5558   222.5697 H6            1 RES     
   24501 H6        -331.5973   -90.7162   222.2219 H6            1 RES     
   24502 H6        -332.7288   -91.0845   221.0030 H6            1 RES     
   24503 H6        -334.2518   -92.1553   222.8214 H6            1 RES     
   24504 H6        -333.0225   -91.5859   224.0210 H6            1 RES     
   24505 H6        -333.5109   -89.1814   223.2209 H6            1 RES     
   24506 H6        -334.7694   -89.8809   222.1273 H6            1 RES     
   24507 H6        -334.6478   -90.0728   225.2138 H6            1 RES     
   24508 H6        -335.8658   -90.9346   224.1944 H6            1 RES     
   24509 H6        -335.5475   -87.8669   224.3163 H6            1 RES     
   24510 H6        -336.7550   -88.7973   223.3438 H6            1 RES     
   24511 H6        -337.6903   -89.7808   225.4679 H6            1 RES     
   24512 H6        -336.5012   -88.8109   226.4243 H6            1 RES     
   24513 H6        -337.7761   -87.9800   225.4558 H6            1 RES     
   24514 H6        -329.9901   -93.9900   222.1646 H6            1 RES     
   24515 H6        -329.6978   -92.4276   221.3554 H6            1 RES     
   24516 H6        -330.0461   -92.7377   224.4090 H6            1 RES     
   24517 H6        -328.5744   -92.8377   223.4171 H6            1 RES     
   24518 H6        -328.9905   -90.4922   222.5127 H6            1 RES     
   24519 H6        -330.1532   -90.2618   223.8757 H6            1 RES     
   24520 H6        -328.1698   -90.8985   225.4669 H6            1 RES     
   24521 H6        -327.1756   -91.0959   223.9969 H6            1 RES     
   24522 H6        -327.6676   -88.6564   223.3990 H6            1 RES     
   24523 H6        -328.3123   -88.4754   225.0676 H6            1 RES     
   24524 H6        -325.9487   -87.7144   224.8290 H6            1 RES     
   24525 H6        -325.4618   -89.2952   224.1302 H6            1 RES     
   24526 H6        -325.8838   -90.4249   226.3084 H6            1 RES     
   24527 H6        -326.4216   -88.8553   227.0322 H6            1 RES     
   24528 H6        -324.1512   -87.8803   226.5986 H6            1 RES     
   24529 H6        -323.6153   -89.4364   225.8536 H6            1 RES     
   24530 H6        -324.0392   -89.3715   227.6033 H6            1 RES     
   24531 H6        -332.7737   -93.4531   217.0220 H6            1 RES     
   24532 H6        -332.0488   -92.2294   218.0519 H6            1 RES     
   24533 H6        -330.4552   -92.9808   216.6323 H6            1 RES     
   24534 H6        -329.5885   -94.1208   219.3674 H6            1 RES     
   24535 H6        -329.6584   -92.3606   218.8320 H6            1 RES     
   24536 H6        -327.7108   -94.4642   217.8943 H6            1 RES     
   24537 H6        -327.9184   -92.7589   217.2382 H6            1 RES     
   24538 H6        -326.0639   -92.8696   218.6716 H6            1 RES     
   24539 H6        -327.3048   -91.9303   219.5698 H6            1 RES     
   24540 H6        -326.7716   -94.9705   219.9165 H6            1 RES     
   24541 H6        -327.7382   -93.9468   221.0294 H6            1 RES     
   24542 H6        -324.6950   -93.7619   220.4001 H6            1 RES     
   24543 H6        -325.4097   -94.5575   221.8443 H6            1 RES     
   24544 H6        -324.5141   -92.3259   222.3980 H6            1 RES     
   24545 H6        -326.2896   -92.4462   222.6455 H6            1 RES     
   24546 H6        -325.6299   -91.5432   221.2186 H6            1 RES     
   24547 H6        -330.2073   -95.9596   217.3837 H6            1 RES     
   24548 H6        -331.2180   -95.3264   216.0296 H6            1 RES     
   24549 H6        -329.5422   -94.1415   214.9610 H6            1 RES     
   24550 H6        -328.2357   -94.6737   215.9823 H6            1 RES     
   24551 H6        -328.2882   -95.4980   213.8148 H6            1 RES     
   24552 H6        -329.7077   -96.5286   214.0524 H6            1 RES     
   24553 H6        -328.3095   -98.0611   215.4725 H6            1 RES     
   24554 H6        -327.0624   -96.7806   215.7175 H6            1 RES     
   24555 H6        -326.4609   -96.6840   213.3818 H6            1 RES     
   24556 H6        -327.6594   -97.9529   212.9296 H6            1 RES     
   24557 H6        -326.3325   -99.6577   214.1289 H6            1 RES     
   24558 H6        -325.2025   -98.3948   214.7640 H6            1 RES     
   24559 H6        -324.5183   -97.7548   212.4687 H6            1 RES     
   24560 H6        -325.6586   -98.9521   211.7508 H6            1 RES     
   24561 H6        -324.3661  -100.8180   212.7676 H6            1 RES     
   24562 H6        -323.2257   -99.6277   213.5273 H6            1 RES     
   24563 H6        -323.3279   -99.7701   211.7346 H6            1 RES     
   24564 C0        -339.1505   -83.3288   217.6634 C0            1 RES     
   24565 C1        -340.3680   -83.8555   217.3333 C1            1 RES     
   24566 C1        -340.9322   -84.5669   218.3296 C1            1 RES     
   24567 C1        -340.1536   -84.6402   219.3635 C1            1 RES     
   24568 C1        -338.8900   -83.9282   219.1045 C1            1 RES     
   24569 C1        -338.0211   -85.1732   219.2004 C1            1 RES     
   24570 C1        -338.5662   -86.2676   219.8069 C1            1 RES     
   24571 S2        -340.2017   -85.9399   220.5474 S2            1 RES     
   24572 C1        -337.9081   -87.6412   219.8122 C1            1 RES     
   24573 C1        -336.5298   -87.8032   219.4838 C1            1 RES     
   24574 N3        -335.9378   -89.0325   219.4622 N3            1 RES     
   24575 C1        -336.6114   -90.1745   219.7264 C1            1 RES     
   24576 C1        -337.9642   -90.0991   220.0336 C1            1 RES     
   24577 C1        -338.6172   -88.8300   220.0856 C1            1 RES     
   24578 N3        -339.9456   -88.8877   220.3852 N3            1 RES     
   24579 S2        -340.2106   -90.5124   220.5715 S2            1 RES     
   24580 N3        -338.7300   -91.1876   220.2891 N3            1 RES     
   24581 S2        -342.3615   -85.3204   217.8931 S2            1 RES     
   24582 C1        -342.2914   -84.6983   216.3198 C1            1 RES     
   24583 C1        -341.1202   -83.9499   216.1504 C1            1 RES     
   24584 C0        -339.3034   -81.7332   217.5910 C0            1 RES     
   24585 C0        -340.3789   -80.5428   217.4466 C0            1 RES     
   24586 C0        -341.3874   -80.6617   216.2607 C0            1 RES     
   24587 C0        -342.8433   -80.6544   216.7639 C0            1 RES     
   24588 C0        -343.8888   -80.9556   215.6750 C0            1 RES     
   24589 C0        -345.3031   -80.8091   216.2684 C0            1 RES     
   24590 C0        -346.4058   -81.2835   215.3137 C0            1 RES     
   24591 C0        -347.7859   -81.0801   215.9431 C0            1 RES     
   24592 C0        -339.4997   -79.2232   217.2899 C0            1 RES     
   24593 C0        -340.0172   -77.7628   217.1001 C0            1 RES     
   24594 C0        -340.3987   -77.3142   215.6560 C0            1 RES     
   24595 C0        -340.1841   -75.7821   215.4572 C0            1 RES     
   24596 C0        -340.4466   -75.3016   214.0148 C0            1 RES     
   24597 C0        -339.7767   -73.9471   213.6654 C0            1 RES     
   24598 C0        -340.1851   -72.7572   214.5460 C0            1 RES     
   24599 C0        -339.4918   -71.4718   214.0739 C0            1 RES     
   24600 C0        -338.0196   -83.5991   216.5585 C0            1 RES     
   24601 C0        -336.5192   -82.9432   216.4878 C0            1 RES     
   24602 C0        -336.5348   -81.3672   216.3575 C0            1 RES     
   24603 C0        -335.2545   -80.6395   215.9602 C0            1 RES     
   24604 C0        -335.4048   -79.1301   215.6984 C0            1 RES     
   24605 C0        -335.6150   -78.3097   216.9880 C0            1 RES     
   24606 C0        -335.2480   -76.8264   216.8003 C0            1 RES     
   24607 C0        -336.1680   -76.0811   215.8489 C0            1 RES     
   24608 C0        -335.3658   -83.4835   217.4502 C0            1 RES     
   24609 C0        -333.9550   -83.4403   216.7490 C0            1 RES     
   24610 C0        -332.6615   -84.0488   217.3575 C0            1 RES     
   24611 C0        -331.7896   -83.1766   218.3193 C0            1 RES     
   24612 C0        -330.2906   -83.5578   218.1119 C0            1 RES     
   24613 C0        -329.2395   -82.7961   218.9481 C0            1 RES     
   24614 C0        -327.8244   -83.1302   218.4124 C0            1 RES     
   24615 C0        -326.6975   -82.4735   219.2084 C0            1 RES     
   24616 H4        -337.0712   -85.2167   218.7354 H4            1 RES     
   24617 H5        -335.9086   -86.9503   219.2638 H5            1 RES     
   24618 H4        -340.8404   -83.5300   215.1973 H4            1 RES     
   24619 H6        -338.6860   -81.4041   218.4541 H6            1 RES     
   24620 H6        -338.8860   -81.4873   216.6354 H6            1 RES     
   24621 H6        -340.9457   -80.4590   218.3998 H6            1 RES     
   24622 H6        -341.2659   -79.8431   215.5289 H6            1 RES     
   24623 H6        -341.1736   -81.5388   215.6610 H6            1 RES     
   24624 H6        -342.9577   -81.4302   217.5527 H6            1 RES     
   24625 H6        -343.0439   -79.6555   217.2104 H6            1 RES     
   24626 H6        -343.7813   -80.2612   214.8127 H6            1 RES     
   24627 H6        -343.7325   -81.9970   215.3164 H6            1 RES     
   24628 H6        -345.4687   -79.7392   216.5271 H6            1 RES     
   24629 H6        -345.3772   -81.4144   217.1981 H6            1 RES     
   24630 H6        -346.3607   -80.7234   214.3553 H6            1 RES     
   24631 H6        -346.2653   -82.3666   215.1036 H6            1 RES     
   24632 H6        -347.8582   -81.6234   216.9103 H6            1 RES     
   24633 H6        -347.9712   -79.9993   216.1234 H6            1 RES     
   24634 H6        -348.5748   -81.4655   215.2635 H6            1 RES     
   24635 H6        -338.9005   -79.1839   218.2259 H6            1 RES     
   24636 H6        -338.7763   -79.3624   216.4557 H6            1 RES     
   24637 H6        -340.7772   -77.4674   217.8512 H6            1 RES     
   24638 H6        -339.1038   -77.1696   217.3304 H6            1 RES     
   24639 H6        -339.7052   -77.8072   214.9378 H6            1 RES     
   24640 H6        -341.4380   -77.6109   215.4081 H6            1 RES     
   24641 H6        -340.7927   -75.1875   216.1708 H6            1 RES     
   24642 H6        -339.1241   -75.5722   215.6647 H6            1 RES     
   24643 H6        -340.0010   -76.0321   213.3046 H6            1 RES     
   24644 H6        -341.5410   -75.2666   213.8287 H6            1 RES     
   24645 H6        -340.0237   -73.7084   212.6071 H6            1 RES     
   24646 H6        -338.6722   -74.0677   213.7334 H6            1 RES     
   24647 H6        -339.8857   -72.9497   215.5979 H6            1 RES     
   24648 H6        -341.2839   -72.6091   214.4999 H6            1 RES     
   24649 H6        -339.7911   -71.2273   213.0317 H6            1 RES     
   24650 H6        -338.3862   -71.5826   214.1103 H6            1 RES     
   24651 H6        -339.7789   -70.6214   214.7283 H6            1 RES     
   24652 H6        -337.8914   -84.7016   216.4883 H6            1 RES     
   24653 H6        -338.4673   -83.3141   215.5790 H6            1 RES     
   24654 H6        -336.2065   -83.3183   215.4892 H6            1 RES     
   24655 H6        -336.8570   -80.9148   217.3144 H6            1 RES     
   24656 H6        -337.2268   -81.1238   215.5229 H6            1 RES     
   24657 H6        -334.5153   -80.7098   216.7777 H6            1 RES     
   24658 H6        -334.8870   -81.1067   215.0210 H6            1 RES     
   24659 H6        -334.4290   -78.8188   215.2690 H6            1 RES     
   24660 H6        -336.1930   -78.9186   214.9419 H6            1 RES     
   24661 H6        -334.9119   -78.6844   217.7617 H6            1 RES     
   24662 H6        -336.6470   -78.4314   217.3793 H6            1 RES     
   24663 H6        -334.2029   -76.7541   216.4282 H6            1 RES     
   24664 H6        -335.2941   -76.3190   217.7882 H6            1 RES     
   24665 H6        -335.8307   -75.0264   215.7559 H6            1 RES     
   24666 H6        -337.1786   -76.0917   216.2812 H6            1 RES     
   24667 H6        -336.1760   -76.5390   214.8386 H6            1 RES     
   24668 H6        -335.3955   -82.9854   218.4440 H6            1 RES     
   24669 H6        -335.5052   -84.5684   217.5850 H6            1 RES     
   24670 H6        -334.1160   -84.0233   215.8166 H6            1 RES     
   24671 H6        -333.6328   -82.4602   216.4136 H6            1 RES     
   24672 H6        -332.0370   -84.1432   216.4407 H6            1 RES     
   24673 H6        -332.7946   -85.0837   217.7349 H6            1 RES     
   24674 H6        -332.1229   -83.2987   219.3728 H6            1 RES     
   24675 H6        -331.8738   -82.1023   218.0456 H6            1 RES     
   24676 H6        -330.0574   -83.3379   217.0454 H6            1 RES     
   24677 H6        -330.1498   -84.6469   218.2820 H6            1 RES     
   24678 H6        -329.3291   -83.0899   220.0162 H6            1 RES     
   24679 H6        -329.3945   -81.6988   218.8605 H6            1 RES     
   24680 H6        -327.7453   -82.7804   217.3582 H6            1 RES     
   24681 H6        -327.6607   -84.2294   218.4271 H6            1 RES     
   24682 H6        -326.6927   -82.8463   220.2536 H6            1 RES     
   24683 H6        -326.8004   -81.3684   219.2055 H6            1 RES     
   24684 H6        -325.7205   -82.7334   218.7419 H6            1 RES     
   24685 C0        -346.4738   -87.3811   208.5675 C0            1 RES     
   24686 C1        -346.9280   -88.5233   209.1659 C1            1 RES     
   24687 C1        -347.6706   -88.2927   210.2668 C1            1 RES     
   24688 C1        -347.7333   -87.0278   210.5437 C1            1 RES     
   24689 C1        -346.9541   -86.2501   209.5645 C1            1 RES     
   24690 C1        -345.9466   -85.7375   210.5826 C1            1 RES     
   24691 C1        -346.2958   -85.8194   211.8995 C1            1 RES     
   24692 S2        -348.0133   -86.3808   212.1550 S2            1 RES     
   24693 C1        -345.3326   -85.5331   213.0442 C1            1 RES     
   24694 C1        -344.1085   -84.8352   212.8249 C1            1 RES     
   24695 N3        -343.2282   -84.5957   213.8398 N3            1 RES     
   24696 C1        -343.4397   -85.0159   215.1071 C1            1 RES     
   24697 C1        -344.6011   -85.7222   215.3941 C1            1 RES     
   24698 C1        -345.5573   -85.9773   214.3644 C1            1 RES     
   24699 N3        -346.6479   -86.6888   214.7669 N3            1 RES     
   24700 S2        -346.3483   -86.9427   216.3763 S2            1 RES     
   24701 N3        -344.8916   -86.2057   216.6265 N3            1 RES     
   24702 S2        -348.1240   -89.6853   211.0770 S2            1 RES     
   24703 C1        -347.3400   -90.6793   209.9525 C1            1 RES     
   24704 C1        -346.6937   -89.8970   208.9876 C1            1 RES     
   24705 C0        -347.1246   -87.3383   207.1015 C0            1 RES     
   24706 C0        -348.2265   -88.0349   206.1555 C0            1 RES     
   24707 C0        -348.1605   -89.5910   206.0464 C0            1 RES     
   24708 C0        -349.4890   -90.2375   206.4824 C0            1 RES     
   24709 C0        -349.4411   -91.7729   206.5813 C0            1 RES     
   24710 C0        -350.8471   -92.3089   206.9122 C0            1 RES     
   24711 C0        -350.8575   -93.8100   207.2273 C0            1 RES     
   24712 C0        -352.2828   -94.2896   207.5118 C0            1 RES     
   24713 C0        -348.0027   -87.3739   204.7231 C0            1 RES     
   24714 C0        -348.7866   -87.6835   203.4092 C0            1 RES     
   24715 C0        -348.3333   -88.9191   202.5725 C0            1 RES     
   24716 C0        -348.6265   -88.7205   201.0536 C0            1 RES     
   24717 C0        -348.1029   -89.8687   200.1660 C0            1 RES     
   24718 C0        -347.9201   -89.4851   198.6744 C0            1 RES     
   24719 C0        -349.1841   -88.9910   197.9557 C0            1 RES     
   24720 C0        -348.8842   -88.6871   196.4814 C0            1 RES     
   24721 C0        -344.9065   -87.4206   208.2282 C0            1 RES     
   24722 C0        -344.0566   -86.3523   207.3211 C0            1 RES     
   24723 C0        -344.5688   -86.2584   205.8279 C0            1 RES     
   24724 C0        -343.6990   -85.5656   204.7838 C0            1 RES     
   24725 C0        -344.2001   -85.6667   203.3319 C0            1 RES     
   24726 C0        -345.4400   -84.7908   203.0567 C0            1 RES     
   24727 C0        -345.6154   -84.4851   201.5582 C0            1 RES     
   24728 C0        -345.9499   -85.7047   200.7169 C0            1 RES     
   24729 C0        -343.6413   -84.9379   207.9340 C0            1 RES     
   24730 C0        -342.2416   -84.4573   207.3921 C0            1 RES     
   24731 C0        -341.4864   -83.2067   207.9205 C0            1 RES     
   24732 C0        -341.7882   -81.8102   207.2844 C0            1 RES     
   24733 C0        -340.4731   -80.9701   207.2861 C0            1 RES     
   24734 C0        -340.5320   -79.5531   206.6755 C0            1 RES     
   24735 C0        -339.0916   -78.9990   206.5369 C0            1 RES     
   24736 C0        -339.0342   -77.5714   205.9952 C0            1 RES     
   24737 H4        -344.9818   -85.4180   210.2871 H4            1 RES     
   24738 H5        -343.8540   -84.4558   211.8486 H5            1 RES     
   24739 H4        -346.0688   -90.3299   208.2226 H4            1 RES     
   24740 H6        -347.3435   -86.2560   206.9791 H6            1 RES     
   24741 H6        -346.3378   -87.6997   206.4704 H6            1 RES     
   24742 H6        -349.2379   -87.7372   206.5099 H6            1 RES     
   24743 H6        -347.9289   -89.9256   205.0193 H6            1 RES     
   24744 H6        -347.3201   -89.9803   206.6093 H6            1 RES     
   24745 H6        -349.7664   -89.8520   207.4882 H6            1 RES     
   24746 H6        -350.2713   -89.9329   205.7524 H6            1 RES     
   24747 H6        -349.0935   -92.2257   205.6266 H6            1 RES     
   24748 H6        -348.7281   -92.0508   207.3887 H6            1 RES     
   24749 H6        -351.5160   -92.1050   206.0461 H6            1 RES     
   24750 H6        -351.2456   -91.7739   207.8018 H6            1 RES     
   24751 H6        -350.4451   -94.3911   206.3749 H6            1 RES     
   24752 H6        -350.2312   -93.9982   208.1268 H6            1 RES     
   24753 H6        -352.7258   -93.7189   208.3566 H6            1 RES     
   24754 H6        -352.9213   -94.1538   206.6124 H6            1 RES     
   24755 H6        -352.2753   -95.3668   207.7806 H6            1 RES     
   24756 H6        -348.1722   -86.2884   204.8960 H6            1 RES     
   24757 H6        -346.9346   -87.4856   204.4314 H6            1 RES     
   24758 H6        -349.8869   -87.6365   203.5354 H6            1 RES     
   24759 H6        -348.5082   -86.8142   202.7720 H6            1 RES     
   24760 H6        -347.2267   -89.0133   202.6520 H6            1 RES     
   24761 H6        -348.7983   -89.8508   202.9540 H6            1 RES     
   24762 H6        -349.7084   -88.5582   200.8632 H6            1 RES     
   24763 H6        -348.0904   -87.8141   200.7343 H6            1 RES     
   24764 H6        -347.0868   -90.1582   200.5130 H6            1 RES     
   24765 H6        -348.7665   -90.7528   200.2734 H6            1 RES     
   24766 H6        -347.5321   -90.3793   198.1382 H6            1 RES     
   24767 H6        -347.1455   -88.6887   198.6036 H6            1 RES     
   24768 H6        -349.5486   -88.0592   198.4374 H6            1 RES     
   24769 H6        -349.9783   -89.7643   198.0076 H6            1 RES     
   24770 H6        -348.5447   -89.6054   195.9551 H6            1 RES     
   24771 H6        -348.0931   -87.9113   196.3906 H6            1 RES     
   24772 H6        -349.7995   -88.3129   195.9755 H6            1 RES     
   24773 H6        -344.3674   -87.5202   209.1958 H6            1 RES     
   24774 H6        -344.7242   -88.3917   207.7136 H6            1 RES     
   24775 H6        -343.0877   -86.8944   207.2668 H6            1 RES     
   24776 H6        -345.5473   -85.7428   205.7986 H6            1 RES     
   24777 H6        -344.6305   -87.3002   205.4466 H6            1 RES     
   24778 H6        -343.6576   -84.4818   204.9911 H6            1 RES     
   24779 H6        -342.6942   -86.0392   204.8244 H6            1 RES     
   24780 H6        -343.3698   -85.2594   202.7169 H6            1 RES     
   24781 H6        -344.3651   -86.7235   203.0246 H6            1 RES     
   24782 H6        -345.2847   -83.8011   203.5361 H6            1 RES     
   24783 H6        -346.3561   -85.2403   203.4944 H6            1 RES     
   24784 H6        -344.6837   -84.0190   201.1700 H6            1 RES     
   24785 H6        -346.4403   -83.7499   201.4375 H6            1 RES     
   24786 H6        -346.0461   -85.4057   199.6510 H6            1 RES     
   24787 H6        -346.9172   -86.0963   201.0624 H6            1 RES     
   24788 H6        -345.1674   -86.4871   200.7943 H6            1 RES     
   24789 H6        -344.4549   -84.1883   207.8208 H6            1 RES     
   24790 H6        -343.4213   -85.0742   209.0052 H6            1 RES     
   24791 H6        -341.5677   -85.3055   207.6398 H6            1 RES     
   24792 H6        -342.1723   -84.3507   206.3147 H6            1 RES     
   24793 H6        -340.4532   -83.4400   207.5777 H6            1 RES     
   24794 H6        -341.4291   -83.1595   209.0276 H6            1 RES     
   24795 H6        -342.6219   -81.3055   207.8194 H6            1 RES     
   24796 H6        -342.0755   -81.9286   206.2169 H6            1 RES     
   24797 H6        -339.7375   -81.5410   206.6752 H6            1 RES     
   24798 H6        -340.0774   -80.8883   208.3212 H6            1 RES     
   24799 H6        -341.1410   -78.8913   207.3283 H6            1 RES     
   24800 H6        -340.9912   -79.5850   205.6636 H6            1 RES     
   24801 H6        -338.5191   -79.6512   205.8393 H6            1 RES     
   24802 H6        -338.5809   -79.0131   207.5240 H6            1 RES     
   24803 H6        -339.5341   -76.8705   206.6955 H6            1 RES     
   24804 H6        -339.5118   -77.5060   204.9955 H6            1 RES     
   24805 H6        -337.9697   -77.2612   205.8934 H6            1 RES     
   24806 C0        -344.5215   -99.4252   210.5469 C0            1 RES     
   24807 C1        -344.7844   -99.4559   211.8880 C1            1 RES     
   24808 C1        -346.0632   -99.1560   212.1904 C1            1 RES     
   24809 C1        -346.7432   -98.8436   211.1319 C1            1 RES     
   24810 C1        -345.8852   -98.9052   209.9356 C1            1 RES     
   24811 C1        -345.9943   -97.4200   209.6249 C1            1 RES     
   24812 C1        -347.0153   -96.7337   210.2159 C1            1 RES     
   24813 S2        -348.1651   -97.8086   211.1395 S2            1 RES     
   24814 C1        -347.1495   -95.2173   210.1651 C1            1 RES     
   24815 C1        -346.4170   -94.4404   209.2198 C1            1 RES     
   24816 N3        -346.5123   -93.0796   209.1831 N3            1 RES     
   24817 C1        -347.2820   -92.3759   210.0433 C1            1 RES     
   24818 C1        -348.0090   -93.0623   211.0078 C1            1 RES     
   24819 C1        -347.9520   -94.4881   211.0679 C1            1 RES     
   24820 N3        -348.6984   -95.0440   212.0636 N3            1 RES     
   24821 S2        -349.3819   -93.7227   212.7927 S2            1 RES     
   24822 N3        -348.7891   -92.4459   211.9289 N3            1 RES     
   24823 S2        -346.3632   -99.0668   213.8346 S2            1 RES     
   24824 C1        -344.7595   -99.4506   214.2196 C1            1 RES     
   24825 C1        -344.0049   -99.5932   213.0488 C1            1 RES     
   24826 C0        -344.0934  -100.9133   210.1266 C0            1 RES     
   24827 C0        -344.0266  -102.4355   210.6491 C0            1 RES     
   24828 C0        -343.3398  -102.6626   212.0327 C0            1 RES     
   24829 C0        -344.2970  -103.3508   213.0241 C0            1 RES     
   24830 C0        -343.7581  -103.4397   214.4633 C0            1 RES     
   24831 C0        -344.7457  -104.2425   215.3314 C0            1 RES     
   24832 C0        -344.3926  -104.2134   216.8238 C0            1 RES     
   24833 C0        -345.3861  -105.0555   217.6277 C0            1 RES     
   24834 C0        -343.2360  -103.2180   209.5083 C0            1 RES     
   24835 C0        -342.8642  -104.7340   209.4893 C0            1 RES     
   24836 C0        -341.5790  -105.1715   210.2569 C0            1 RES     
   24837 C0        -340.9260  -106.4308   209.6084 C0            1 RES     
   24838 C0        -339.5927  -106.8451   210.2649 C0            1 RES     
   24839 C0        -338.6921  -107.7329   209.3670 C0            1 RES     
   24840 C0        -339.3170  -109.0559   208.9007 C0            1 RES     
   24841 C0        -338.3159  -109.8606   208.0606 C0            1 RES     
   24842 C0        -343.2037   -98.5890   210.1759 C0            1 RES     
   24843 C0        -342.4477   -98.5140   208.7236 C0            1 RES     
   24844 C0        -341.9249   -99.9194   208.2211 C0            1 RES     
   24845 C0        -340.9326   -99.9752   207.0641 C0            1 RES     
   24846 C0        -340.3555  -101.3680   206.7533 C0            1 RES     
   24847 C0        -341.3762  -102.3107   206.0827 C0            1 RES     
   24848 C0        -340.6930  -103.4607   205.3208 C0            1 RES     
   24849 C0        -339.9613  -104.4437   206.2183 C0            1 RES     
   24850 C0        -343.0547   -97.6134   207.5536 C0            1 RES     
   24851 C0        -341.9216   -96.9722   206.6653 C0            1 RES     
   24852 C0        -342.1790   -95.9175   205.5540 C0            1 RES     
   24853 C0        -342.5150   -96.4039   204.1062 C0            1 RES     
   24854 C0        -341.9068   -95.3891   203.0887 C0            1 RES     
   24855 C0        -342.0961   -95.6869   201.5855 C0            1 RES     
   24856 C0        -341.2091   -94.7212   200.7601 C0            1 RES     
   24857 C0        -341.3633   -94.8884   199.2491 C0            1 RES     
   24858 H4        -345.2568   -96.9239   209.0502 H4            1 RES     
   24859 H5        -345.7807   -94.9123   208.4890 H5            1 RES     
   24860 H4        -342.9397   -99.7605   213.0695 H4            1 RES     
   24861 H6        -344.5704  -101.0160   209.1285 H6            1 RES     
   24862 H6        -343.0235  -100.8645   210.0972 H6            1 RES     
   24863 H6        -345.0604  -102.8444   210.6840 H6            1 RES     
   24864 H6        -342.4251  -103.2759   211.9463 H6            1 RES     
   24865 H6        -342.9541  -101.7300   212.4278 H6            1 RES     
   24866 H6        -345.2495  -102.7779   213.0649 H6            1 RES     
   24867 H6        -344.5086  -104.3728   212.6391 H6            1 RES     
   24868 H6        -342.7630  -103.9361   214.4889 H6            1 RES     
   24869 H6        -343.6523  -102.4070   214.8631 H6            1 RES     
   24870 H6        -344.7574  -105.2957   214.9714 H6            1 RES     
   24871 H6        -345.7667  -103.8172   215.2172 H6            1 RES     
   24872 H6        -343.3676  -104.6083   216.9906 H6            1 RES     
   24873 H6        -344.4370  -103.1638   217.1887 H6            1 RES     
   24874 H6        -346.4239  -104.6884   217.4735 H6            1 RES     
   24875 H6        -345.3311  -106.1200   217.3133 H6            1 RES     
   24876 H6        -345.1484  -104.9938   218.7105 H6            1 RES     
   24877 H6        -343.8607  -103.0760   208.5992 H6            1 RES     
   24878 H6        -342.2696  -102.7019   209.3130 H6            1 RES     
   24879 H6        -343.7278  -105.3983   209.6937 H6            1 RES     
   24880 H6        -342.5996  -104.8865   208.4188 H6            1 RES     
   24881 H6        -340.8197  -104.3623   210.1652 H6            1 RES     
   24882 H6        -341.7942  -105.3378   211.3319 H6            1 RES     
   24883 H6        -341.6252  -107.2934   209.5948 H6            1 RES     
   24884 H6        -340.6899  -106.1743   208.5648 H6            1 RES     
   24885 H6        -338.9886  -105.9324   210.4615 H6            1 RES     
   24886 H6        -339.7962  -107.3378   211.2393 H6            1 RES     
   24887 H6        -337.7625  -107.9588   209.9351 H6            1 RES     
   24888 H6        -338.4011  -107.1485   208.4655 H6            1 RES     
   24889 H6        -340.2107  -108.8479   208.2751 H6            1 RES     
   24890 H6        -339.6187  -109.6645   209.7783 H6            1 RES     
   24891 H6        -337.4173  -110.1159   208.6631 H6            1 RES     
   24892 H6        -337.9934  -109.2815   207.1680 H6            1 RES     
   24893 H6        -338.7833  -110.8062   207.7127 H6            1 RES     
   24894 H6        -343.3834   -97.5401   210.4987 H6            1 RES     
   24895 H6        -342.4028   -98.9512   210.8603 H6            1 RES     
   24896 H6        -341.5374   -97.9514   209.0243 H6            1 RES     
   24897 H6        -342.7809  -100.5516   207.9181 H6            1 RES     
   24898 H6        -341.3502  -100.3641   209.0616 H6            1 RES     
   24899 H6        -341.4304   -99.6632   206.1291 H6            1 RES     
   24900 H6        -340.0807   -99.3116   207.3275 H6            1 RES     
   24901 H6        -339.5485  -101.1814   206.0135 H6            1 RES     
   24902 H6        -339.8928  -101.8333   207.6521 H6            1 RES     
   24903 H6        -341.9265  -101.7380   205.3064 H6            1 RES     
   24904 H6        -342.1190  -102.6882   206.8167 H6            1 RES     
   24905 H6        -339.9759  -103.0351   204.5856 H6            1 RES     
   24906 H6        -341.4665  -104.0243   204.7556 H6            1 RES     
   24907 H6        -339.4854  -105.2317   205.5959 H6            1 RES     
   24908 H6        -340.7047  -104.9149   206.8770 H6            1 RES     
   24909 H6        -339.1735  -103.9460   206.8200 H6            1 RES     
   24910 H6        -343.8303   -98.1621   206.9755 H6            1 RES     
   24911 H6        -343.5074   -96.7157   208.0048 H6            1 RES     
   24912 H6        -341.2898   -96.4366   207.4062 H6            1 RES     
   24913 H6        -341.2522   -97.6782   206.1855 H6            1 RES     
   24914 H6        -341.1608   -95.4771   205.4597 H6            1 RES     
   24915 H6        -342.8350   -95.0836   205.8790 H6            1 RES     
   24916 H6        -343.6115   -96.5356   203.9793 H6            1 RES     
   24917 H6        -342.0176   -97.3774   203.9032 H6            1 RES     
   24918 H6        -340.8077   -95.3874   203.2687 H6            1 RES     
   24919 H6        -342.2949   -94.3683   203.2941 H6            1 RES     
   24920 H6        -343.1659   -95.5598   201.3125 H6            1 RES     
   24921 H6        -341.7850   -96.7288   201.3538 H6            1 RES     
   24922 H6        -340.1408   -94.9042   201.0157 H6            1 RES     
   24923 H6        -341.4520   -93.6673   201.0161 H6            1 RES     
   24924 H6        -342.4003   -94.6472   198.9361 H6            1 RES     
   24925 H6        -341.1084   -95.9220   198.9355 H6            1 RES     
   24926 H6        -340.6714   -94.1866   198.7308 H6            1 RES     
   24927 C0        -339.9293   -98.1763   221.9548 C0            1 RES     
   24928 C1        -340.9239   -97.4067   222.4911 C1            1 RES     
   24929 C1        -342.1134   -98.0372   222.5559 C1            1 RES     
   24930 C1        -342.0548   -99.2216   222.0321 C1            1 RES     
   24931 C1        -340.6993   -99.4885   221.5201 C1            1 RES     
   24932 C1        -341.1327   -99.5990   220.0660 C1            1 RES     
   24933 C1        -342.4616   -99.7974   219.8258 C1            1 RES     
   24934 S2        -343.4348  -100.0686   221.3456 S2            1 RES     
   24935 C1        -343.0833   -99.7362   218.4367 C1            1 RES     
   24936 C1        -342.2785   -99.8061   217.2615 C1            1 RES     
   24937 N3        -342.8245   -99.7275   216.0133 N3            1 RES     
   24938 C1        -344.1490   -99.5585   215.8026 C1            1 RES     
   24939 C1        -344.9952   -99.4599   216.9000 C1            1 RES     
   24940 C1        -344.4664   -99.5563   218.2232 C1            1 RES     
   24941 N3        -345.3933   -99.4326   219.2147 N3            1 RES     
   24942 S2        -346.8050   -99.2199   218.3743 S2            1 RES     
   24943 N3        -346.3322   -99.2656   216.7925 N3            1 RES     
   24944 S2        -343.3637   -97.0624   223.0923 S2            1 RES     
   24945 C1        -342.3376   -95.7285   223.2796 C1            1 RES     
   24946 C1        -341.0400   -96.0588   222.8700 C1            1 RES     
   24947 C0        -338.8238   -98.3664   223.1021 C0            1 RES     
   24948 C0        -338.5361   -98.1390   224.6705 C0            1 RES     
   24949 C0        -338.8206   -96.7077   225.2257 C0            1 RES     
   24950 C0        -339.8434   -96.7491   226.3768 C0            1 RES     
   24951 C0        -340.3162   -95.3631   226.8511 C0            1 RES     
   24952 C0        -341.2425   -95.5277   228.0712 C0            1 RES     
   24953 C0        -341.9212   -94.2175   228.4896 C0            1 RES     
   24954 C0        -342.7977   -94.4368   229.7249 C0            1 RES     
   24955 C0        -336.9959   -98.5032   224.8539 C0            1 RES     
   24956 C0        -336.1654   -98.4498   226.1746 C0            1 RES     
   24957 C0        -335.5765   -97.0703   226.6016 C0            1 RES     
   24958 C0        -334.2584   -97.2389   227.4182 C0            1 RES     
   24959 C0        -333.5763   -95.9022   227.7768 C0            1 RES     
   24960 C0        -332.0692   -96.0307   228.1199 C0            1 RES     
   24961 C0        -331.7323   -96.9603   229.2949 C0            1 RES     
   24962 C0        -330.2210   -96.9678   229.5625 C0            1 RES     
   24963 C0        -339.0895   -97.4254   220.8130 C0            1 RES     
   24964 C0        -337.6986   -97.9280   220.1063 C0            1 RES     
   24965 C0        -336.5070   -98.1008   221.1316 C0            1 RES     
   24966 C0        -335.0838   -98.2462   220.6026 C0            1 RES     
   24967 C0        -333.9765   -98.2434   221.6719 C0            1 RES     
   24968 C0        -333.9311   -99.5442   222.5002 C0            1 RES     
   24969 C0        -332.5626   -99.7589   223.1717 C0            1 RES     
   24970 C0        -332.2390   -98.7375   224.2483 C0            1 RES     
   24971 C0        -337.7376   -99.0676   218.9891 C0            1 RES     
   24972 C0        -336.6379   -98.8371   217.8840 C0            1 RES     
   24973 C0        -336.5254   -99.6740   216.5799 C0            1 RES     
   24974 C0        -335.6933  -100.9981   216.5948 C0            1 RES     
   24975 C0        -335.0189  -101.1754   215.1988 C0            1 RES     
   24976 C0        -334.1199  -102.4139   214.9938 C0            1 RES     
   24977 C0        -333.3502  -102.2679   213.6570 C0            1 RES     
   24978 C0        -332.4702  -103.4714   213.3224 C0            1 RES     
   24979 H4        -340.4480   -99.4366   219.2753 H4            1 RES     
   24980 H5        -341.2119   -99.9460   217.3278 H5            1 RES     
   24981 H4        -340.2467   -95.3293   222.8333 H4            1 RES     
   24982 H6        -338.5075   -99.4196   222.9437 H6            1 RES     
   24983 H6        -338.0762   -97.6421   222.8483 H6            1 RES     
   24984 H6        -339.1292   -98.8794   225.2511 H6            1 RES     
   24985 H6        -337.9023   -96.2141   225.5911 H6            1 RES     
   24986 H6        -339.1371   -96.0430   224.4303 H6            1 RES     
   24987 H6        -340.7453   -97.3063   226.0400 H6            1 RES     
   24988 H6        -339.3784   -97.2976   227.2256 H6            1 RES     
   24989 H6        -339.4535   -94.7197   227.1323 H6            1 RES     
   24990 H6        -340.8681   -94.8759   226.0172 H6            1 RES     
   24991 H6        -340.6416   -95.9242   228.9202 H6            1 RES     
   24992 H6        -342.0427   -96.2611   227.8301 H6            1 RES     
   24993 H6        -341.1616   -93.4401   228.7201 H6            1 RES     
   24994 H6        -342.5629   -93.8567   227.6560 H6            1 RES     
   24995 H6        -343.5638   -95.2175   229.5269 H6            1 RES     
   24996 H6        -342.1740   -94.7561   230.5876 H6            1 RES     
   24997 H6        -343.3181   -93.4939   229.9947 H6            1 RES     
   24998 H6        -336.9275   -99.5643   224.5280 H6            1 RES     
   24999 H6        -336.3912   -97.9101   224.1322 H6            1 RES     
   25000 H6        -336.6492   -98.9841   227.0169 H6            1 RES     
   25001 H6        -335.2681   -99.0485   225.8995 H6            1 RES     
   25002 H6        -335.2881   -96.5096   225.6838 H6            1 RES     
   25003 H6        -336.3245   -96.4742   227.1627 H6            1 RES     
   25004 H6        -334.4205   -97.8396   228.3379 H6            1 RES     
   25005 H6        -333.5482   -97.7868   226.7808 H6            1 RES     
   25006 H6        -333.6113   -95.2305   226.8912 H6            1 RES     
   25007 H6        -334.1341   -95.4107   228.6020 H6            1 RES     
   25008 H6        -331.6846   -95.0124   228.3497 H6            1 RES     
   25009 H6        -331.5288   -96.3985   227.2189 H6            1 RES     
   25010 H6        -332.0499   -97.9970   229.0552 H6            1 RES     
   25011 H6        -332.2566   -96.6200   230.2118 H6            1 RES     
   25012 H6        -329.8683   -95.9500   229.8370 H6            1 RES     
   25013 H6        -329.6620   -97.3081   228.6637 H6            1 RES     
   25014 H6        -329.9857   -97.6570   230.4012 H6            1 RES     
   25015 H6        -339.7996   -97.1882   219.9907 H6            1 RES     
   25016 H6        -338.8157   -96.4301   221.2320 H6            1 RES     
   25017 H6        -337.4543   -97.0145   219.5219 H6            1 RES     
   25018 H6        -336.6863   -98.9871   221.7692 H6            1 RES     
   25019 H6        -336.4567   -97.1610   221.7221 H6            1 RES     
   25020 H6        -334.9736   -99.2168   220.0877 H6            1 RES     
   25021 H6        -334.8947   -97.3870   219.9233 H6            1 RES     
   25022 H6        -333.0279   -98.1894   221.0968 H6            1 RES     
   25023 H6        -334.0325   -97.3420   222.3221 H6            1 RES     
   25024 H6        -334.0509  -100.4054   221.8092 H6            1 RES     
   25025 H6        -334.7609   -99.5819   223.2371 H6            1 RES     
   25026 H6        -331.7677   -99.7338   222.3948 H6            1 RES     
   25027 H6        -332.5488  -100.7664   223.6410 H6            1 RES     
   25028 H6        -331.2343   -98.9508   224.6727 H6            1 RES     
   25029 H6        -332.9884   -98.8411   225.0459 H6            1 RES     
   25030 H6        -332.2408   -97.7025   223.8496 H6            1 RES     
   25031 H6        -337.7230  -100.0838   219.4406 H6            1 RES     
   25032 H6        -338.6616   -98.9465   218.4008 H6            1 RES     
   25033 H6        -336.8479   -97.8059   217.5268 H6            1 RES     
   25034 H6        -335.6156   -98.8047   218.2456 H6            1 RES     
   25035 H6        -335.9185   -98.9827   215.9529 H6            1 RES     
   25036 H6        -337.4905   -99.7913   216.0449 H6            1 RES     
   25037 H6        -336.3333  -101.8625   216.8764 H6            1 RES     
   25038 H6        -334.8624  -100.9211   217.3295 H6            1 RES     
   25039 H6        -334.3618  -100.2878   215.0547 H6            1 RES     
   25040 H6        -335.7924  -101.1693   214.4010 H6            1 RES     
   25041 H6        -334.7470  -103.3314   214.9820 H6            1 RES     
   25042 H6        -333.3764  -102.4946   215.8163 H6            1 RES     
   25043 H6        -332.6929  -101.3710   213.7146 H6            1 RES     
   25044 H6        -334.0655  -102.1213   212.8190 H6            1 RES     
   25045 H6        -333.0919  -104.3804   213.1857 H6            1 RES     
   25046 H6        -331.7186  -103.6482   214.1197 H6            1 RES     
   25047 H6        -331.9278  -103.2746   212.3701 H6            1 RES     
   25048 C0        -344.1736   -86.7238   223.8563 C0            1 RES     
   25049 C1        -345.4811   -86.9325   223.5159 C1            1 RES     
   25050 C1        -346.1196   -87.7871   224.3397 C1            1 RES     
   25051 C1        -345.3209   -88.2680   225.2404 C1            1 RES     
   25052 C1        -343.9614   -87.7298   225.0592 C1            1 RES     
   25053 C1        -343.3321   -89.0785   224.7437 C1            1 RES     
   25054 C1        -344.0403   -90.1923   225.0911 C1            1 RES     
   25055 S2        -345.5520   -89.8163   226.0420 S2            1 RES     
   25056 C1        -343.6459   -91.6034   224.6748 C1            1 RES     
   25057 C1        -342.3374   -91.8931   224.1874 C1            1 RES     
   25058 N3        -341.9827   -93.1492   223.7892 N3            1 RES     
   25059 C1        -342.8415   -94.1931   223.8074 C1            1 RES     
   25060 C1        -344.1418   -93.9837   224.2494 C1            1 RES     
   25061 C1        -344.5478   -92.6883   224.6929 C1            1 RES     
   25062 N3        -345.8489   -92.6070   225.0906 N3            1 RES     
   25063 S2        -346.3987   -94.1540   224.8693 S2            1 RES     
   25064 N3        -345.0818   -94.9595   224.2820 N3            1 RES     
   25065 S2        -347.6815   -88.1467   223.8577 S2            1 RES     
   25066 C1        -347.5711   -87.1373   222.5027 C1            1 RES     
   25067 C1        -346.2915   -86.5740   222.4257 C1            1 RES     
   25068 C0        -344.0342   -85.1670   224.2187 C0            1 RES     
   25069 C0        -344.8785   -83.8229   224.4927 C0            1 RES     
   25070 C0        -345.9453   -83.4447   223.4173 C0            1 RES     
   25071 C0        -347.3504   -83.3367   224.0395 C0            1 RES     
   25072 C0        -348.4826   -83.1518   223.0131 C0            1 RES     
   25073 C0        -349.8170   -82.9435   223.7544 C0            1 RES     
   25074 C0        -351.0309   -82.9501   222.8170 C0            1 RES     
   25075 C0        -352.3197   -82.7034   223.6046 C0            1 RES     
   25076 C0        -343.7803   -82.6739   224.6049 C0            1 RES     
   25077 C0        -344.0292   -81.1531   224.8535 C0            1 RES     
   25078 C0        -344.3881   -80.2693   223.6196 C0            1 RES     
   25079 C0        -343.9054   -78.7984   223.8095 C0            1 RES     
   25080 C0        -344.1415   -77.9043   222.5745 C0            1 RES     
   25081 C0        -343.2513   -76.6351   222.5303 C0            1 RES     
   25082 C0        -343.3933   -75.6820   223.7260 C0            1 RES     
   25083 C0        -342.4984   -74.4485   223.5438 C0            1 RES     
   25084 C0        -343.1637   -86.8627   222.6179 C0            1 RES     
   25085 C0        -341.5733   -86.4681   222.5805 C0            1 RES     
   25086 C0        -341.3054   -84.9365   222.8692 C0            1 RES     
   25087 C0        -339.9330   -84.3483   222.5577 C0            1 RES     
   25088 C0        -339.8157   -82.8216   222.7154 C0            1 RES     
   25089 C0        -339.8120   -82.3634   224.1886 C0            1 RES     
   25090 C0        -339.1882   -80.9667   224.3620 C0            1 RES     
   25091 C0        -339.9986   -79.8485   223.7297 C0            1 RES     
   25092 C0        -340.4955   -87.4335   223.2550 C0            1 RES     
   25093 C0        -339.1346   -87.4318   222.4601 C0            1 RES     
   25094 C0        -337.9481   -88.3877   222.7637 C0            1 RES     
   25095 C0        -336.8875   -87.9682   223.8338 C0            1 RES     
   25096 C0        -335.4952   -88.5186   223.3939 C0            1 RES     
   25097 C0        -334.2846   -88.1989   224.2975 C0            1 RES     
   25098 C0        -332.9812   -88.6008   223.5624 C0            1 RES     
   25099 C0        -331.7174   -88.3820   224.3929 C0            1 RES     
   25100 H4        -342.4289   -89.1482   224.1963 H4            1 RES     
   25101 H5        -341.5811   -91.1266   224.1408 H5            1 RES     
   25102 H4        -345.9837   -85.9606   221.5938 H4            1 RES     
   25103 H6        -343.3278   -85.1933   225.0758 H6            1 RES     
   25104 H6        -343.6234   -84.7405   223.3260 H6            1 RES     
   25105 H6        -345.3758   -83.9119   225.4836 H6            1 RES     
   25106 H6        -345.7096   -82.4883   222.9172 H6            1 RES     
   25107 H6        -345.9241   -84.1464   222.5917 H6            1 RES     
   25108 H6        -347.5687   -84.2694   224.6049 H6            1 RES     
   25109 H6        -347.3435   -82.4797   224.7488 H6            1 RES     
   25110 H6        -348.2894   -82.2750   222.3565 H6            1 RES     
   25111 H6        -348.5367   -84.0659   222.3814 H6            1 RES     
   25112 H6        -349.7713   -81.9735   224.2986 H6            1 RES     
   25113 H6        -349.9580   -83.7599   224.4961 H6            1 RES     
   25114 H6        -350.9280   -82.1639   222.0387 H6            1 RES     
   25115 H6        -351.1014   -83.9419   222.3185 H6            1 RES     
   25116 H6        -352.4458   -83.4715   224.3982 H6            1 RES     
   25117 H6        -352.2949   -81.6983   224.0781 H6            1 RES     
   25118 H6        -353.1964   -82.7527   222.9251 H6            1 RES     
   25119 H6        -343.1415   -82.9918   225.4579 H6            1 RES     
   25120 H6        -343.1340   -82.6958   223.6992 H6            1 RES     
   25121 H6        -344.6865   -80.9544   225.7238 H6            1 RES     
   25122 H6        -343.0128   -80.8042   225.1441 H6            1 RES     
   25123 H6        -343.8307   -80.6534   222.7355 H6            1 RES     
   25124 H6        -345.4745   -80.3118   223.4016 H6            1 RES     
   25125 H6        -344.3609   -78.3307   224.7078 H6            1 RES     
   25126 H6        -342.8164   -78.8304   223.9640 H6            1 RES     
   25127 H6        -343.8708   -78.4749   221.6592 H6            1 RES     
   25128 H6        -345.2183   -77.6405   222.5078 H6            1 RES     
   25129 H6        -343.4988   -76.0781   221.5995 H6            1 RES     
   25130 H6        -342.1857   -76.9494   222.4602 H6            1 RES     
   25131 H6        -343.0860   -76.2021   224.6579 H6            1 RES     
   25132 H6        -344.4472   -75.3486   223.8239 H6            1 RES     
   25133 H6        -342.7955   -73.8818   222.6348 H6            1 RES     
   25134 H6        -341.4314   -74.7450   223.4458 H6            1 RES     
   25135 H6        -342.5940   -73.7750   224.4219 H6            1 RES     
   25136 H6        -343.2434   -87.9091   222.2498 H6            1 RES     
   25137 H6        -343.5963   -86.2505   221.7938 H6            1 RES     
   25138 H6        -341.3812   -86.6011   221.4937 H6            1 RES     
   25139 H6        -341.4947   -84.7174   223.9371 H6            1 RES     
   25140 H6        -341.9787   -84.3634   222.1964 H6            1 RES     
   25141 H6        -339.1824   -84.7605   223.2550 H6            1 RES     
   25142 H6        -339.7013   -84.5937   221.4987 H6            1 RES     
   25143 H6        -338.8202   -82.5691   222.2927 H6            1 RES     
   25144 H6        -340.5858   -82.2843   222.1182 H6            1 RES     
   25145 H6        -339.1547   -83.0461   224.7676 H6            1 RES     
   25146 H6        -340.8297   -82.4165   224.6297 H6            1 RES     
   25147 H6        -338.1658   -80.9678   223.9253 H6            1 RES     
   25148 H6        -339.0947   -80.7493   225.4481 H6            1 RES     
   25149 H6        -339.4781   -78.8790   223.8847 H6            1 RES     
   25150 H6        -340.9730   -79.8112   224.2373 H6            1 RES     
   25151 H6        -340.1371   -80.0040   222.6402 H6            1 RES     
   25152 H6        -340.3874   -87.2291   224.3428 H6            1 RES     
   25153 H6        -340.8253   -88.4755   223.1137 H6            1 RES     
   25154 H6        -339.4428   -87.7021   221.4271 H6            1 RES     
   25155 H6        -338.6539   -86.4641   222.3642 H6            1 RES     
   25156 H6        -337.3945   -88.3283   221.7996 H6            1 RES     
   25157 H6        -338.2513   -89.4500   222.8679 H6            1 RES     
   25158 H6        -337.1886   -88.3181   224.8451 H6            1 RES     
   25159 H6        -336.7856   -86.8614   223.8600 H6            1 RES     
   25160 H6        -335.2750   -88.0561   222.4050 H6            1 RES     
   25161 H6        -335.5489   -89.6204   223.2589 H6            1 RES     
   25162 H6        -334.3773   -88.7555   225.2550 H6            1 RES     
   25163 H6        -334.2395   -87.1096   224.5152 H6            1 RES     
   25164 H6        -332.8879   -87.9933   222.6339 H6            1 RES     
   25165 H6        -333.0214   -89.6733   223.2735 H6            1 RES     
   25166 H6        -331.7329   -89.0227   225.2988 H6            1 RES     
   25167 H6        -331.6157   -87.3172   224.6890 H6            1 RES     
   25168 H6        -330.8272   -88.6608   223.7849 H6            1 RES     
   25169 C0        -352.5281   -86.8665   214.7475 C0            1 RES     
   25170 C1        -353.1560   -88.0382   215.0660 C1            1 RES     
   25171 C1        -353.7920   -87.9997   216.2537 C1            1 RES     
   25172 C1        -353.6087   -86.8669   216.8566 C1            1 RES     
   25173 C1        -352.7461   -85.9893   216.0463 C1            1 RES     
   25174 C1        -351.6157   -85.9483   217.0636 C1            1 RES     
   25175 C1        -351.9128   -86.3297   218.3400 C1            1 RES     
   25176 S2        -353.6906   -86.6497   218.6000 S2            1 RES     
   25177 C1        -350.8617   -86.5305   219.4238 C1            1 RES     
   25178 C1        -349.5417   -86.0101   219.2807 C1            1 RES     
   25179 N3        -348.5866   -86.2061   220.2355 N3            1 RES     
   25180 C1        -348.8129   -86.9171   221.3627 C1            1 RES     
   25181 C1        -350.0697   -87.4744   221.5628 C1            1 RES     
   25182 C1        -351.1030   -87.2766   220.5969 C1            1 RES     
   25183 N3        -352.2859   -87.8821   220.8998 N3            1 RES     
   25184 S2        -351.9640   -88.6133   222.3511 S2            1 RES     
   25185 N3        -350.3868   -88.2227   222.6473 N3            1 RES     
   25186 S2        -354.4555   -89.4670   216.7101 S2            1 RES     
   25187 C1        -353.9199   -90.2292   215.2960 C1            1 RES     
   25188 C1        -353.1863   -89.3295   214.5132 C1            1 RES     
   25189 C0        -353.2268   -86.3170   213.4117 C0            1 RES     
   25190 C0        -354.4804   -86.5366   212.4243 C0            1 RES     
   25191 C0        -354.7062   -87.9920   211.9060 C0            1 RES     
   25192 C0        -356.1092   -88.5060   212.2806 C0            1 RES     
   25193 C0        -356.3394   -89.9958   211.9693 C0            1 RES     
   25194 C0        -357.8030   -90.3636   212.2791 C0            1 RES     
   25195 C0        -358.0742   -91.8706   212.1898 C0            1 RES     
   25196 C0        -359.5486   -92.1691   212.4716 C0            1 RES     
   25197 C0        -354.2054   -85.5542   211.2004 C0            1 RES     
   25198 C0        -355.0925   -85.3585   209.9310 C0            1 RES     
   25199 C0        -354.9129   -86.3743   208.7613 C0            1 RES     
   25200 C0        -355.2344   -85.7213   207.3819 C0            1 RES     
   25201 C0        -354.9719   -86.6518   206.1795 C0            1 RES     
   25202 C0        -354.7908   -85.9093   204.8300 C0            1 RES     
   25203 C0        -355.9744   -85.0364   204.3879 C0            1 RES     
   25204 C0        -355.6923   -84.3935   203.0231 C0            1 RES     
   25205 C0        -351.0120   -87.0681   214.2638 C0            1 RES     
   25206 C0        -350.0232   -85.9467   213.5921 C0            1 RES     
   25207 C0        -350.5778   -85.3641   212.2306 C0            1 RES     
   25208 C0        -349.6447   -84.5641   211.3272 C0            1 RES     
   25209 C0        -350.2224   -84.1794   209.9532 C0            1 RES     
   25210 C0        -351.2918   -83.0704   210.0348 C0            1 RES     
   25211 C0        -351.4771   -82.3410   208.6918 C0            1 RES     
   25212 C0        -352.0682   -83.2110   207.5960 C0            1 RES     
   25213 C0        -349.3276   -84.8428   214.5119 C0            1 RES     
   25214 C0        -347.8899   -84.4686   213.9855 C0            1 RES     
   25215 C0        -346.8945   -83.5525   214.7494 C0            1 RES     
   25216 C0        -346.9639   -82.0053   214.5323 C0            1 RES     
   25217 C0        -345.5184   -81.4257   214.6301 C0            1 RES     
   25218 C0        -345.3443   -79.9059   214.4200 C0            1 RES     
   25219 C0        -343.8346   -79.5793   214.2964 C0            1 RES     
   25220 C0        -343.5413   -78.0875   214.1444 C0            1 RES     
   25221 H4        -350.6233   -85.7229   216.7727 H4            1 RES     
   25222 H5        -349.2673   -85.4247   218.4183 H5            1 RES     
   25223 H4        -352.6874   -89.6324   213.6063 H4            1 RES     
   25224 H6        -353.2488   -85.2219   213.5980 H6            1 RES     
   25225 H6        -352.5498   -86.6155   212.6369 H6            1 RES     
   25226 H6        -355.4024   -86.1857   212.9378 H6            1 RES     
   25227 H6        -354.5875   -88.0654   210.8102 H6            1 RES     
   25228 H6        -353.9264   -88.6532   212.2658 H6            1 RES     
   25229 H6        -356.2644   -88.3711   213.3737 H6            1 RES     
   25230 H6        -356.8551   -87.8887   211.7328 H6            1 RES     
   25231 H6        -356.1252   -90.2201   210.9011 H6            1 RES     
   25232 H6        -355.6529   -90.5977   212.6050 H6            1 RES     
   25233 H6        -358.4624   -89.8231   211.5634 H6            1 RES     
   25234 H6        -358.0551   -90.0352   213.3110 H6            1 RES     
   25235 H6        -357.8152   -92.2552   211.1802 H6            1 RES     
   25236 H6        -357.4522   -92.3985   212.9457 H6            1 RES     
   25237 H6        -359.8399   -91.7873   213.4741 H6            1 RES     
   25238 H6        -360.1921   -91.6889   211.7033 H6            1 RES     
   25239 H6        -359.7265   -93.2647   212.4472 H6            1 RES     
   25240 H6        -354.1647   -84.5452   211.6665 H6            1 RES     
   25241 H6        -353.1905   -85.7555   210.7905 H6            1 RES     
   25242 H6        -356.1586   -85.1679   210.1681 H6            1 RES     
   25243 H6        -354.6891   -84.4057   209.5203 H6            1 RES     
   25244 H6        -353.8398   -86.6670   208.7089 H6            1 RES     
   25245 H6        -355.5228   -87.2853   208.9277 H6            1 RES     
   25246 H6        -356.2757   -85.3377   207.3432 H6            1 RES     
   25247 H6        -354.5563   -84.8630   207.2620 H6            1 RES     
   25248 H6        -354.0113   -87.1881   206.3415 H6            1 RES     
   25249 H6        -355.7808   -87.4101   206.1137 H6            1 RES     
   25250 H6        -354.5987   -86.6733   204.0444 H6            1 RES     
   25251 H6        -353.8874   -85.2625   204.8976 H6            1 RES     
   25252 H6        -356.1392   -84.2258   205.1288 H6            1 RES     
   25253 H6        -356.8938   -85.6530   204.3101 H6            1 RES     
   25254 H6        -355.5517   -85.1750   202.2452 H6            1 RES     
   25255 H6        -354.7773   -83.7634   203.0645 H6            1 RES     
   25256 H6        -356.5457   -83.7498   202.7211 H6            1 RES     
   25257 H6        -350.4562   -87.5164   215.1165 H6            1 RES     
   25258 H6        -351.0349   -87.8771   213.4982 H6            1 RES     
   25259 H6        -349.1738   -86.6046   213.3069 H6            1 RES     
   25260 H6        -351.4454   -84.7069   212.4295 H6            1 RES     
   25261 H6        -350.8472   -86.2365   211.5975 H6            1 RES     
   25262 H6        -349.3956   -83.6008   211.8061 H6            1 RES     
   25263 H6        -348.7432   -85.1890   211.1477 H6            1 RES     
   25264 H6        -349.3607   -83.7612   209.3910 H6            1 RES     
   25265 H6        -350.5926   -85.0694   209.3970 H6            1 RES     
   25266 H6        -350.9356   -82.2896   210.7396 H6            1 RES     
   25267 H6        -352.2537   -83.4659   210.4238 H6            1 RES     
   25268 H6        -350.4946   -81.9459   208.3534 H6            1 RES     
   25269 H6        -352.1577   -81.4758   208.8460 H6            1 RES     
   25270 H6        -352.1570   -82.6195   206.6595 H6            1 RES     
   25271 H6        -353.0740   -83.5179   207.9164 H6            1 RES     
   25272 H6        -351.4398   -84.1020   207.3920 H6            1 RES     
   25273 H6        -349.9941   -83.9679   214.6760 H6            1 RES     
   25274 H6        -349.0871   -85.3018   215.4846 H6            1 RES     
   25275 H6        -347.3724   -85.4509   213.9381 H6            1 RES     
   25276 H6        -347.8521   -84.0835   212.9721 H6            1 RES     
   25277 H6        -345.9386   -83.8493   214.2619 H6            1 RES     
   25278 H6        -346.7785   -83.8209   215.8198 H6            1 RES     
   25279 H6        -347.6652   -81.5369   215.2567 H6            1 RES     
   25280 H6        -347.3170   -81.7775   213.5029 H6            1 RES     
   25281 H6        -344.9289   -81.9199   213.8247 H6            1 RES     
   25282 H6        -345.0670   -81.6970   215.6086 H6            1 RES     
   25283 H6        -345.7907   -79.3578   215.2776 H6            1 RES     
   25284 H6        -345.8478   -79.5832   213.4828 H6            1 RES     
   25285 H6        -343.4244   -80.1000   213.4018 H6            1 RES     
   25286 H6        -343.2902   -79.9473   215.1928 H6            1 RES     
   25287 H6        -343.8711   -77.5334   215.0474 H6            1 RES     
   25288 H6        -344.0444   -77.6730   213.2461 H6            1 RES     
   25289 H6        -342.4438   -77.9405   214.0277 H6            1 RES     
   25290 C0        -352.7300   -99.1420   213.3129 C0            1 RES     
   25291 C1        -352.9319   -99.4958   214.6178 C1            1 RES     
   25292 C1        -354.1186   -99.0846   215.1071 C1            1 RES     
   25293 C1        -354.7778   -98.3866   214.2360 C1            1 RES     
   25294 C1        -354.0018   -98.2578   212.9901 C1            1 RES     
   25295 C1        -353.8507   -96.7474   213.0906 C1            1 RES     
   25296 C1        -354.7001   -96.0915   213.9340 C1            1 RES     
   25297 S2        -355.9837   -97.1745   214.6479 S2            1 RES     
   25298 C1        -354.5559   -94.6187   214.2946 C1            1 RES     
   25299 C1        -353.7377   -93.7436   213.5211 C1            1 RES     
   25300 N3        -353.5832   -92.4284   213.8510 N3            1 RES     
   25301 C1        -354.1702   -91.8712   214.9337 C1            1 RES     
   25302 C1        -354.9655   -92.6667   215.7490 C1            1 RES     
   25303 C1        -355.1684   -94.0436   215.4282 C1            1 RES     
   25304 N3        -355.9574   -94.7208   216.3093 N3            1 RES     
   25305 S2        -356.3524   -93.5566   217.4197 S2            1 RES     
   25306 N3        -355.5759   -92.2072   216.8684 N3            1 RES     
   25307 S2        -354.3209   -99.4017   216.7379 S2            1 RES     
   25308 C1        -352.7989  -100.1343   216.8565 C1            1 RES     
   25309 C1        -352.1381  -100.0722   215.6236 C1            1 RES     
   25310 C0        -352.6021  -100.5071   212.4794 C0            1 RES     
   25311 C0        -352.7918  -102.1037   212.5766 C0            1 RES     
   25312 C0        -352.0952  -102.8111   213.7816 C0            1 RES     
   25313 C0        -353.1157  -103.5780   214.6438 C0            1 RES     
   25314 C0        -352.5364  -104.1454   215.9523 C0            1 RES     
   25315 C0        -353.6134  -104.9820   216.6690 C0            1 RES     
   25316 C0        -353.1925  -105.4217   218.0768 C0            1 RES     
   25317 C0        -354.2855  -106.2769   218.7221 C0            1 RES     
   25318 C0        -352.2117  -102.6621   211.2017 C0            1 RES     
   25319 C0        -352.1257  -104.1544   210.7517 C0            1 RES     
   25320 C0        -350.9086  -104.9905   211.2536 C0            1 RES     
   25321 C0        -350.5285  -106.1131   210.2397 C0            1 RES     
   25322 C0        -349.2650  -106.9047   210.6365 C0            1 RES     
   25323 C0        -348.5850  -107.6475   209.4569 C0            1 RES     
   25324 C0        -349.4629  -108.6706   208.7216 C0            1 RES     
   25325 C0        -348.6663  -109.3670   207.6098 C0            1 RES     
   25326 C0        -351.2997   -98.4644   213.0515 C0            1 RES     
   25327 C0        -350.6106   -98.1192   211.6050 C0            1 RES     
   25328 C0        -350.3783   -99.3988   210.7053 C0            1 RES     
   25329 C0        -349.4676   -99.2973   209.4860 C0            1 RES     
   25330 C0        -349.1709  -100.6266   208.7687 C0            1 RES     
   25331 C0        -350.3771  -101.1683   207.9738 C0            1 RES     
   25332 C0        -349.9524  -102.1612   206.8767 C0            1 RES     
   25333 C0        -349.3729  -103.4589   207.4127 C0            1 RES     
   25334 C0        -351.0953   -96.8453   210.7739 C0            1 RES     
   25335 C0        -349.9061   -96.1801   209.9819 C0            1 RES     
   25336 C0        -350.0165   -94.8337   209.2147 C0            1 RES     
   25337 C0        -350.5025   -94.8424   207.7283 C0            1 RES     
   25338 C0        -349.7659   -93.7016   206.9594 C0            1 RES     
   25339 C0        -350.0759   -93.5405   205.4553 C0            1 RES     
   25340 C0        -349.0657   -92.5447   204.8318 C0            1 RES     
   25341 C0        -349.3176   -92.2633   203.3512 C0            1 RES     
   25342 H4        -353.0620   -96.2408   212.5990 H4            1 RES     
   25343 H5        -353.2331   -94.0948   212.6357 H5            1 RES     
   25344 H4        -351.1219  -100.4114   215.4994 H4            1 RES     
   25345 H6        -353.1354  -100.2524   211.5387 H6            1 RES     
   25346 H6        -351.5440  -100.6285   212.3633 H6            1 RES     
   25347 H6        -353.8803  -102.3310   212.6004 H6            1 RES     
   25348 H6        -351.3135  -103.5187   213.4521 H6            1 RES     
   25349 H6        -351.5271  -102.0991   214.3689 H6            1 RES     
   25350 H6        -353.9440  -102.8899   214.9226 H6            1 RES     
   25351 H6        -353.5288  -104.4060   214.0264 H6            1 RES     
   25352 H6        -351.6492  -104.7862   215.7534 H6            1 RES     
   25353 H6        -352.2245  -103.2939   216.5967 H6            1 RES     
   25354 H6        -353.8348  -105.8793   216.0486 H6            1 RES     
   25355 H6        -354.5432  -104.3801   216.7666 H6            1 RES     
   25356 H6        -352.2509  -106.0100   218.0373 H6            1 RES     
   25357 H6        -353.0266  -104.5199   218.7062 H6            1 RES     
   25358 H6        -355.2443  -105.7164   218.7677 H6            1 RES     
   25359 H6        -354.4413  -107.2084   218.1363 H6            1 RES     
   25360 H6        -353.9909  -106.5545   219.7559 H6            1 RES     
   25361 H6        -352.8410  -102.1756   210.4244 H6            1 RES     
   25362 H6        -351.1771  -102.2782   211.0583 H6            1 RES     
   25363 H6        -353.0862  -104.6981   210.8554 H6            1 RES     
   25364 H6        -351.9433  -104.0488   209.6587 H6            1 RES     
   25365 H6        -350.0187  -104.3233   211.3059 H6            1 RES     
   25366 H6        -351.1008  -105.4076   212.2630 H6            1 RES     
   25367 H6        -351.3739  -106.8119   210.0666 H6            1 RES     
   25368 H6        -350.2976  -105.6226   209.2822 H6            1 RES     
   25369 H6        -348.4952  -106.1929   211.0074 H6            1 RES     
   25370 H6        -349.5103  -107.6053   211.4626 H6            1 RES     
   25371 H6        -347.6874  -108.1700   209.8560 H6            1 RES     
   25372 H6        -348.2336  -106.8943   208.7166 H6            1 RES     
   25373 H6        -350.3311  -108.1552   208.2591 H6            1 RES     
   25374 H6        -349.8303  -109.4384   209.4336 H6            1 RES     
   25375 H6        -347.8031  -109.9218   208.0372 H6            1 RES     
   25376 H6        -348.2846  -108.6265   206.8736 H6            1 RES     
   25377 H6        -349.3149  -110.0909   207.0721 H6            1 RES     
   25378 H6        -351.2687   -97.5295   213.6529 H6            1 RES     
   25379 H6        -350.5481   -99.1268   213.5387 H6            1 RES     
   25380 H6        -349.5996   -97.8180   211.9555 H6            1 RES     
   25381 H6        -351.3489   -99.7742   210.3293 H6            1 RES     
   25382 H6        -349.8568  -100.1451   211.3422 H6            1 RES     
   25383 H6        -349.9423   -98.6636   208.7163 H6            1 RES     
   25384 H6        -348.4971   -98.8807   209.8326 H6            1 RES     
   25385 H6        -348.3784  -100.3793   208.0309 H6            1 RES     
   25386 H6        -348.7604  -101.3899   209.4667 H6            1 RES     
   25387 H6        -350.8481  -100.3224   207.4297 H6            1 RES     
   25388 H6        -351.1418  -101.6053   208.6499 H6            1 RES     
   25389 H6        -349.2041  -101.6740   206.2144 H6            1 RES     
   25390 H6        -350.8415  -102.4132   206.2590 H6            1 RES     
   25391 H6        -349.0790  -104.1131   206.5639 H6            1 RES     
   25392 H6        -350.1589  -103.9640   207.9920 H6            1 RES     
   25393 H6        -348.4803  -103.2818   208.0468 H6            1 RES     
   25394 H6        -351.9843   -97.0793   210.1480 H6            1 RES     
   25395 H6        -351.3543   -96.0441   211.4849 H6            1 RES     
   25396 H6        -349.1531   -95.9795   210.7743 H6            1 RES     
   25397 H6        -349.4004   -96.8274   209.2733 H6            1 RES     
   25398 H6        -348.9402   -94.5578   209.1436 H6            1 RES     
   25399 H6        -350.4926   -94.0249   209.8068 H6            1 RES     
   25400 H6        -351.6092   -94.7523   207.6751 H6            1 RES     
   25401 H6        -350.2021   -95.7908   207.2317 H6            1 RES     
   25402 H6        -348.6782   -93.9299   207.0293 H6            1 RES     
   25403 H6        -349.9503   -92.7269   207.4603 H6            1 RES     
   25404 H6        -351.1157   -93.1695   205.3270 H6            1 RES     
   25405 H6        -349.9723   -94.5152   204.9308 H6            1 RES     
   25406 H6        -348.0386   -92.9636   204.9289 H6            1 RES     
   25407 H6        -349.0990   -91.5764   205.3764 H6            1 RES     
   25408 H6        -350.3060   -91.7787   203.2112 H6            1 RES     
   25409 H6        -349.2714   -93.1986   202.7554 H6            1 RES     
   25410 H6        -348.5334   -91.5699   202.9719 H6            1 RES     
   25411 C0        -347.4652  -101.8414   224.1657 C0            1 RES     
   25412 C1        -348.2757  -101.0960   224.9758 C1            1 RES     
   25413 C1        -349.5565  -101.5158   224.9849 C1            1 RES     
   25414 C1        -349.7405  -102.5040   224.1663 C1            1 RES     
   25415 C1        -348.4821  -102.8391   223.4771 C1            1 RES     
   25416 C1        -348.9951  -102.4739   222.0922 C1            1 RES     
   25417 C1        -350.3474  -102.3778   221.9346 C1            1 RES     
   25418 S2        -351.2827  -102.8918   223.4150 S2            1 RES     
   25419 C1        -351.0108  -101.8368   220.6748 C1            1 RES     
   25420 C1        -350.2876  -101.7128   219.4520 C1            1 RES     
   25421 N3        -350.8668  -101.2064   218.3249 N3            1 RES     
   25422 C1        -352.1462  -100.7709   218.2913 C1            1 RES     
   25423 C1        -352.9083  -100.8395   219.4508 C1            1 RES     
   25424 C1        -352.3457  -101.3806   220.6468 C1            1 RES     
   25425 N3        -353.1874  -101.3831   221.7188 N3            1 RES     
   25426 S2        -354.5734  -100.7193   221.1000 S2            1 RES     
   25427 N3        -354.1904  -100.4064   219.5242 N3            1 RES     
   25428 S2        -350.5806  -100.5340   225.8728 S2            1 RES     
   25429 C1        -349.3196   -99.4899   226.3054 C1            1 RES     
   25430 C1        -348.1250   -99.9037   225.7034 C1            1 RES     
   25431 C0        -346.3616  -102.5177   225.1140 C0            1 RES     
   25432 C0        -345.9650  -102.7796   226.6530 C0            1 RES     
   25433 C0        -345.9560  -101.5290   227.5876 C0            1 RES     
   25434 C0        -346.9148  -101.7160   228.7787 C0            1 RES     
   25435 C0        -347.1028  -100.4552   229.6415 C0            1 RES     
   25436 C0        -347.9863  -100.7937   230.8575 C0            1 RES     
   25437 C0        -348.3930   -99.5555   231.6662 C0            1 RES     
   25438 C0        -349.2369   -99.9582   232.8778 C0            1 RES     
   25439 C0        -344.5109  -103.4280   226.5890 C0            1 RES     
   25440 C0        -343.6247  -103.8760   227.7934 C0            1 RES     
   25441 C0        -342.7736  -102.7826   228.5092 C0            1 RES     
   25442 C0        -341.4725  -103.3827   229.1255 C0            1 RES     
   25443 C0        -340.5409  -102.3266   229.7557 C0            1 RES     
   25444 C0        -339.0689  -102.7899   229.9098 C0            1 RES     
   25445 C0        -338.8543  -104.0482   230.7635 C0            1 RES     
   25446 C0        -337.3594  -104.3769   230.8764 C0            1 RES     
   25447 C0        -346.5554  -100.9547   223.1864 C0            1 RES     
   25448 C0        -345.3145  -101.4654   222.2453 C0            1 RES     
   25449 C0        -344.1288  -102.1060   223.0729 C0            1 RES     
   25450 C0        -342.7824  -102.3325   222.3928 C0            1 RES     
   25451 C0        -341.6453  -102.8049   223.3165 C0            1 RES     
   25452 C0        -341.8012  -104.2721   223.7674 C0            1 RES     
   25453 C0        -340.4658  -104.8844   224.2275 C0            1 RES     
   25454 C0        -339.9109  -104.2650   225.4985 C0            1 RES     
   25455 C0        -345.6135  -102.2325   220.8776 C0            1 RES     
   25456 C0        -344.5423  -101.8915   219.7729 C0            1 RES     
   25457 C0        -344.6456  -102.3454   218.2907 C0            1 RES     
   25458 C0        -344.0709  -103.7408   217.8802 C0            1 RES     
   25459 C0        -343.5056  -103.6366   216.4294 C0            1 RES     
   25460 C0        -342.8597  -104.9015   215.8238 C0            1 RES     
   25461 C0        -342.1387  -104.5230   214.5055 C0            1 RES     
   25462 C0        -341.5109  -105.7160   213.7864 C0            1 RES     
   25463 H4        -348.3294  -102.2156   221.3109 H4            1 RES     
   25464 H5        -349.2629  -102.0387   219.3786 H5            1 RES     
   25465 H4        -347.2137   -99.3326   225.7846 H4            1 RES     
   25466 H6        -346.2515  -103.5241   224.6564 H6            1 RES     
   25467 H6        -345.5063  -101.8846   224.9895 H6            1 RES     
   25468 H6        -346.6564  -103.5431   227.0727 H6            1 RES     
   25469 H6        -344.9468  -101.3123   227.9814 H6            1 RES     
   25470 H6        -346.1815  -100.6291   227.0274 H6            1 RES     
   25471 H6        -347.9182  -102.0034   228.3942 H6            1 RES     
   25472 H6        -346.5197  -102.5448   229.4067 H6            1 RES     
   25473 H6        -346.1247  -100.0643   229.9989 H6            1 RES     
   25474 H6        -347.5939   -99.6741   229.0199 H6            1 RES     
   25475 H6        -347.4298  -101.5008   231.5127 H6            1 RES     
   25476 H6        -348.9178  -101.2910   230.5092 H6            1 RES     
   25477 H6        -347.4938   -99.0068   232.0195 H6            1 RES     
   25478 H6        -348.9954   -98.8796   231.0202 H6            1 RES     
   25479 H6        -350.1416  -100.5178   232.5553 H6            1 RES     
   25480 H6        -348.6432  -100.5997   233.5642 H6            1 RES     
   25481 H6        -349.5624   -99.0532   233.4326 H6            1 RES     
   25482 H6        -344.6536  -104.3553   225.9917 H6            1 RES     
   25483 H6        -343.8416  -102.7673   225.9941 H6            1 RES     
   25484 H6        -344.1590  -104.5338   228.5081 H6            1 RES     
   25485 H6        -342.8662  -104.5151   227.2881 H6            1 RES     
   25486 H6        -342.4299  -102.0470   227.7472 H6            1 RES     
   25487 H6        -343.3728  -102.2489   229.2746 H6            1 RES     
   25488 H6        -341.6995  -104.1776   229.8670 H6            1 RES     
   25489 H6        -340.9052  -103.8437   228.3031 H6            1 RES     
   25490 H6        -340.4929  -101.4415   229.0841 H6            1 RES     
   25491 H6        -340.9604  -101.9956   230.7294 H6            1 RES     
   25492 H6        -338.4936  -101.9512   230.3609 H6            1 RES     
   25493 H6        -338.6472  -102.9800   228.8973 H6            1 RES     
   25494 H6        -339.3676  -104.9127   230.2918 H6            1 RES     
   25495 H6        -339.2644  -103.8912   231.7826 H6            1 RES     
   25496 H6        -336.8136  -103.5458   231.3733 H6            1 RES     
   25497 H6        -336.9144  -104.5447   229.8714 H6            1 RES     
   25498 H6        -337.2161  -105.2986   231.4795 H6            1 RES     
   25499 H6        -347.2471  -100.3878   222.5254 H6            1 RES     
   25500 H6        -346.0846  -100.1715   223.8237 H6            1 RES     
   25501 H6        -344.9339  -100.4797   221.9001 H6            1 RES     
   25502 H6        -344.4381  -103.0913   223.4701 H6            1 RES     
   25503 H6        -343.8796  -101.3858   223.8813 H6            1 RES     
   25504 H6        -342.8761  -103.1290   221.6338 H6            1 RES     
   25505 H6        -342.4704  -101.3631   221.9474 H6            1 RES     
   25506 H6        -340.7304  -102.7518   222.6890 H6            1 RES     
   25507 H6        -341.5049  -102.1200   224.1822 H6            1 RES     
   25508 H6        -342.1088  -104.8789   222.8896 H6            1 RES     
   25509 H6        -342.5889  -104.3736   224.5434 H6            1 RES     
   25510 H6        -339.7166  -104.7780   223.4130 H6            1 RES     
   25511 H6        -340.6156  -105.9700   224.4133 H6            1 RES     
   25512 H6        -338.9440  -104.7484   225.7559 H6            1 RES     
   25513 H6        -340.6290  -104.4588   226.3080 H6            1 RES     
   25514 H6        -339.7411  -103.1746   225.3866 H6            1 RES     
   25515 H6        -345.7647  -103.3216   221.0440 H6            1 RES     
   25516 H6        -346.5257  -101.8047   220.4311 H6            1 RES     
   25517 H6        -344.5758  -100.7820   219.7195 H6            1 RES     
   25518 H6        -343.5159  -102.1280   220.0326 H6            1 RES     
   25519 H6        -343.9517  -101.6181   217.8123 H6            1 RES     
   25520 H6        -345.6395  -102.1513   217.8369 H6            1 RES     
   25521 H6        -344.8449  -104.5319   217.9846 H6            1 RES     
   25522 H6        -343.2070  -104.0058   218.5279 H6            1 RES     
   25523 H6        -342.7042  -102.8639   216.4616 H6            1 RES     
   25524 H6        -344.3009  -103.2850   215.7374 H6            1 RES     
   25525 H6        -343.6443  -105.6647   215.6313 H6            1 RES     
   25526 H6        -342.1064  -105.3256   216.5228 H6            1 RES     
   25527 H6        -341.3261  -103.7968   214.7338 H6            1 RES     
   25528 H6        -342.8529  -104.0368   213.8063 H6            1 RES     
   25529 H6        -342.2945  -106.4378   213.4757 H6            1 RES     
   25530 H6        -340.7686  -106.2256   214.4353 H6            1 RES     
   25531 H6        -340.9861  -105.3575   212.8722 H6            1 RES     
   25532 C0        -349.4433   -90.8144   229.3888 C0            1 RES     
   25533 C1        -350.7811   -90.7041   229.1301 C1            1 RES     
   25534 C1        -351.5269   -91.6349   229.7578 C1            1 RES     
   25535 C1        -350.7893   -92.4688   230.4220 C1            1 RES     
   25536 C1        -349.3639   -92.1323   230.2609 C1            1 RES     
   25537 C1        -349.0082   -93.4270   229.5458 C1            1 RES     
   25538 C1        -349.8920   -94.4615   229.6546 C1            1 RES     
   25539 S2        -351.2634   -94.1178   230.8085 S2            1 RES     
   25540 C1        -349.7828   -95.7491   228.8483 C1            1 RES     
   25541 C1        -348.5736   -96.1047   228.1811 C1            1 RES     
   25542 N3        -348.4743   -97.2440   227.4365 N3            1 RES     
   25543 C1        -349.5082   -98.0971   227.2616 C1            1 RES     
   25544 C1        -350.7262   -97.8064   227.8633 C1            1 RES     
   25545 C1        -350.8667   -96.6340   228.6665 C1            1 RES     
   25546 N3        -352.1110   -96.4523   229.1921 N3            1 RES     
   25547 S2        -352.9450   -97.7672   228.6264 S2            1 RES     
   25548 N3        -351.8268   -98.5856   227.7276 N3            1 RES     
   25549 S2        -353.1488   -91.5870   229.3477 S2            1 RES     
   25550 C1        -352.9177   -90.2770   228.2999 C1            1 RES     
   25551 C1        -351.5614   -89.9323   228.2530 C1            1 RES     
   25552 C0        -349.0040   -89.4615   230.1312 C0            1 RES     
   25553 C0        -349.5737   -88.1244   230.8256 C0            1 RES     
   25554 C0        -350.6014   -87.2960   229.9920 C0            1 RES     
   25555 C0        -351.9326   -87.1336   230.7501 C0            1 RES     
   25556 C0        -353.0577   -86.4910   229.9190 C0            1 RES     
   25557 C0        -354.2956   -86.2778   230.8111 C0            1 RES     
   25558 C0        -355.5321   -85.8277   230.0231 C0            1 RES     
   25559 C0        -356.7160   -85.5983   230.9654 C0            1 RES     
   25560 C0        -348.2793   -87.2469   231.1308 C0            1 RES     
   25561 C0        -348.2331   -85.8331   231.7910 C0            1 RES     
   25562 C0        -348.4802   -84.5984   230.8709 C0            1 RES     
   25563 C0        -347.7276   -83.3360   231.3929 C0            1 RES     
   25564 C0        -347.8523   -82.1113   230.4627 C0            1 RES     
   25565 C0        -346.7473   -81.0427   230.6688 C0            1 RES     
   25566 C0        -346.6566   -80.4443   232.0801 C0            1 RES     
   25567 C0        -345.5600   -79.3724   232.1438 C0            1 RES     
   25568 C0        -348.5342   -90.7722   228.0678 C0            1 RES     
   25569 C0        -346.9019   -90.6492   227.9856 C0            1 RES     
   25570 C0        -346.3444   -89.3211   228.6387 C0            1 RES     
   25571 C0        -344.9033   -88.9037   228.3643 C0            1 RES     
   25572 C0        -344.5006   -87.5196   228.9043 C0            1 RES     
   25573 C0        -344.3449   -87.4901   230.4390 C0            1 RES     
   25574 C0        -343.4680   -86.3167   230.9124 C0            1 RES     
   25575 C0        -344.0878   -84.9506   230.6739 C0            1 RES     
   25576 C0        -345.9896   -91.9259   228.2795 C0            1 RES     
   25577 C0        -344.6897   -91.9298   227.3884 C0            1 RES     
   25578 C0        -343.6860   -93.1135   227.3182 C0            1 RES     
   25579 C0        -342.5182   -93.1837   228.3561 C0            1 RES     
   25580 C0        -341.2723   -93.8133   227.6586 C0            1 RES     
   25581 C0        -339.9833   -93.9569   228.4964 C0            1 RES     
   25582 C0        -338.8111   -94.3502   227.5625 C0            1 RES     
   25583 C0        -337.4916   -94.5781   228.2986 C0            1 RES     
   25584 H4        -348.1593   -93.4913   228.9168 H4            1 RES     
   25585 H5        -347.6924   -95.4899   228.2659 H5            1 RES     
   25586 H4        -351.1850   -89.1735   227.5855 H4            1 RES     
   25587 H6        -348.2755   -89.8375   230.8812 H6            1 RES     
   25588 H6        -348.5634   -88.8800   229.3467 H6            1 RES     
   25589 H6        -350.0326   -88.3989   231.8009 H6            1 RES     
   25590 H6        -350.2175   -86.2913   229.7397 H6            1 RES     
   25591 H6        -350.7474   -87.7379   229.0132 H6            1 RES     
   25592 H6        -352.2920   -88.1365   231.0696 H6            1 RES     
   25593 H6        -351.7358   -86.5172   231.6550 H6            1 RES     
   25594 H6        -352.7374   -85.5118   229.4996 H6            1 RES     
   25595 H6        -353.3078   -87.1750   229.0781 H6            1 RES     
   25596 H6        -354.0477   -85.5154   231.5834 H6            1 RES     
   25597 H6        -354.5497   -87.2316   231.3231 H6            1 RES     
   25598 H6        -355.3227   -84.8862   229.4716 H6            1 RES     
   25599 H6        -355.8063   -86.6191   229.2914 H6            1 RES     
   25600 H6        -356.9441   -86.5230   231.5386 H6            1 RES     
   25601 H6        -356.4853   -84.7798   231.6810 H6            1 RES     
   25602 H6        -357.6172   -85.3146   230.3823 H6            1 RES     
   25603 H6        -347.6709   -87.8869   231.8069 H6            1 RES     
   25604 H6        -347.6905   -87.1253   230.1943 H6            1 RES     
   25605 H6        -348.8019   -85.7757   232.7408 H6            1 RES     
   25606 H6        -347.1576   -85.7491   232.0659 H6            1 RES     
   25607 H6        -348.0442   -84.8114   229.8687 H6            1 RES     
   25608 H6        -349.5649   -84.4005   230.7526 H6            1 RES     
   25609 H6        -348.0476   -83.0644   232.4210 H6            1 RES     
   25610 H6        -346.6570   -83.5875   231.4305 H6            1 RES     
   25611 H6        -347.7334   -82.4455   229.4087 H6            1 RES     
   25612 H6        -348.8643   -81.6662   230.5691 H6            1 RES     
   25613 H6        -346.9311   -80.2191   229.9438 H6            1 RES     
   25614 H6        -345.7619   -81.4963   230.4190 H6            1 RES     
   25615 H6        -346.4074   -81.2431   232.8102 H6            1 RES     
   25616 H6        -347.6258   -79.9822   232.3605 H6            1 RES     
   25617 H6        -345.7897   -78.5374   231.4469 H6            1 RES     
   25618 H6        -344.5712   -79.8018   231.8717 H6            1 RES     
   25619 H6        -345.4897   -78.9594   233.1725 H6            1 RES     
   25620 H6        -348.8215   -91.6497   227.4480 H6            1 RES     
   25621 H6        -348.8847   -89.8950   227.4772 H6            1 RES     
   25622 H6        -346.7878   -90.5086   226.8889 H6            1 RES     
   25623 H6        -346.4408   -89.3753   229.7396 H6            1 RES     
   25624 H6        -346.9315   -88.4830   228.2057 H6            1 RES     
   25625 H6        -344.2097   -89.6087   228.8556 H6            1 RES     
   25626 H6        -344.7697   -88.8838   227.2610 H6            1 RES     
   25627 H6        -343.4963   -87.3278   228.4707 H6            1 RES     
   25628 H6        -345.1857   -86.7203   228.5438 H6            1 RES     
   25629 H6        -343.7980   -88.4037   230.7546 H6            1 RES     
   25630 H6        -345.3336   -87.4943   230.9445 H6            1 RES     
   25631 H6        -342.4845   -86.3658   230.3964 H6            1 RES     
   25632 H6        -343.2863   -86.4239   232.0037 H6            1 RES     
   25633 H6        -343.3916   -84.1600   231.0276 H6            1 RES     
   25634 H6        -345.0143   -84.8945   231.2629 H6            1 RES     
   25635 H6        -344.3026   -84.7764   229.5997 H6            1 RES     
   25636 H6        -345.7957   -92.0483   229.3677 H6            1 RES     
   25637 H6        -346.5112   -92.8203   227.9021 H6            1 RES     
   25638 H6        -345.0895   -91.8519   226.3544 H6            1 RES     
   25639 H6        -344.0445   -91.0654   227.5043 H6            1 RES     
   25640 H6        -343.1760   -92.8837   226.3556 H6            1 RES     
   25641 H6        -344.1739   -94.0989   227.1688 H6            1 RES     
   25642 H6        -342.8314   -93.7432   229.2643 H6            1 RES     
   25643 H6        -342.2138   -92.1589   228.6614 H6            1 RES     
   25644 H6        -341.0169   -93.1399   226.8091 H6            1 RES     
   25645 H6        -341.5335   -94.8113   227.2457 H6            1 RES     
   25646 H6        -340.1322   -94.7316   229.2792 H6            1 RES     
   25647 H6        -339.7290   -92.9919   228.9863 H6            1 RES     
   25648 H6        -338.6509   -93.5352   226.8209 H6            1 RES     
   25649 H6        -339.0608   -95.2805   227.0080 H6            1 RES     
   25650 H6        -337.5826   -95.4311   229.0026 H6            1 RES     
   25651 H6        -337.1827   -93.6671   228.8522 H6            1 RES     
   25652 H6        -336.6968   -94.8217   227.5580 H6            1 RES     
   25653 C0        -358.0933   -87.0796   221.3877 C0            1 RES     
   25654 C1        -358.9102   -88.1741   221.4461 C1            1 RES     
   25655 C1        -359.4729   -88.3589   222.6569 C1            1 RES     
   25656 C1        -359.0571   -87.4809   223.5152 C1            1 RES     
   25657 C1        -358.0864   -86.5689   222.8854 C1            1 RES     
   25658 C1        -356.9220   -86.9946   223.7670 C1            1 RES     
   25659 C1        -357.2249   -87.6573   224.9212 C1            1 RES     
   25660 S2        -359.0173   -87.7399   225.2543 S2            1 RES     
   25661 C1        -356.1796   -88.3174   225.8108 C1            1 RES     
   25662 C1        -354.7945   -88.0018   225.6854 C1            1 RES     
   25663 N3        -353.8486   -88.6061   226.4614 N3            1 RES     
   25664 C1        -354.1493   -89.5519   227.3794 C1            1 RES     
   25665 C1        -355.4764   -89.9284   227.5439 C1            1 RES     
   25666 C1        -356.4993   -89.3065   226.7650 C1            1 RES     
   25667 N3        -357.7579   -89.7690   227.0088 N3            1 RES     
   25668 S2        -357.5091   -90.9127   228.1811 S2            1 RES     
   25669 N3        -355.8750   -90.8829   228.4196 N3            1 RES     
   25670 S2        -360.3725   -89.7654   222.7736 S2            1 RES     
   25671 C1        -360.0518   -90.1878   221.1655 C1            1 RES     
   25672 C1        -359.2024   -89.2410   220.5800 C1            1 RES     
   25673 C0        -358.7402   -86.0778   220.3142 C0            1 RES     
   25674 C0        -360.0570   -85.8093   219.4262 C0            1 RES     
   25675 C0        -360.5697   -87.0091   218.5687 C0            1 RES     
   25676 C0        -362.0244   -87.3685   218.9259 C0            1 RES     
   25677 C0        -362.5382   -88.6570   218.2586 C0            1 RES     
   25678 C0        -364.0286   -88.8501   218.5976 C0            1 RES     
   25679 C0        -364.5756   -90.2090   218.1429 C0            1 RES     
   25680 C0        -366.0651   -90.3270   218.4742 C0            1 RES     
   25681 C0        -359.6631   -84.5879   218.4819 C0            1 RES     
   25682 C0        -360.5569   -83.9086   217.3972 C0            1 RES     
   25683 C0        -360.6209   -84.5799   215.9909 C0            1 RES     
   25684 C0        -360.8804   -83.5300   214.8670 C0            1 RES     
   25685 C0        -360.8490   -84.1251   213.4438 C0            1 RES     
   25686 C0        -360.5971   -83.0811   212.3249 C0            1 RES     
   25687 C0        -361.6196   -81.9385   212.2400 C0            1 RES     
   25688 C0        -361.2875   -81.0012   211.0708 C0            1 RES     
   25689 C0        -356.6639   -87.3870   220.7278 C0            1 RES     
   25690 C0        -355.5182   -86.3025   220.2831 C0            1 RES     
   25691 C0        -356.0187   -85.2860   219.1799 C0            1 RES     
   25692 C0        -354.9973   -84.4335   218.4338 C0            1 RES     
   25693 C0        -355.5573   -83.5973   217.2690 C0            1 RES     
   25694 C0        -356.4002   -82.3932   217.7382 C0            1 RES     
   25695 C0        -356.5102   -81.3033   216.6566 C0            1 RES     
   25696 C0        -357.3008   -81.7300   215.4319 C0            1 RES     
   25697 C0        -354.5901   -85.6230   221.3901 C0            1 RES     
   25698 C0        -353.1340   -85.3601   220.8472 C0            1 RES     
   25699 C0        -351.9532   -84.8651   221.7271 C0            1 RES     
   25700 C0        -351.7475   -83.3281   221.9301 C0            1 RES     
   25701 C0        -350.2171   -83.0431   222.0396 C0            1 RES     
   25702 C0        -349.7770   -81.5740   222.2192 C0            1 RES     
   25703 C0        -348.2404   -81.4786   222.0441 C0            1 RES     
   25704 C0        -347.6855   -80.0715   222.2608 C0            1 RES     
   25705 H4        -355.9196   -86.8642   223.4532 H4            1 RES     
   25706 H5        -354.4574   -87.2556   224.9844 H5            1 RES     
   25707 H4        -358.8100   -89.3612   219.5827 H4            1 RES     
   25708 H6        -358.5523   -85.0877   220.7818 H6            1 RES     
   25709 H6        -358.1659   -86.2594   219.4282 H6            1 RES     
   25710 H6        -360.8743   -85.4662   220.0980 H6            1 RES     
   25711 H6        -360.5172   -86.7976   217.4857 H6            1 RES     
   25712 H6        -359.9088   -87.8624   218.6679 H6            1 RES     
   25713 H6        -362.1016   -87.5149   220.0258 H6            1 RES     
   25714 H6        -362.6689   -86.5109   218.6314 H6            1 RES     
   25715 H6        -362.4183   -88.6117   217.1537 H6            1 RES     
   25716 H6        -361.9453   -89.5143   218.6472 H6            1 RES     
   25717 H6        -364.6099   -88.0334   218.1136 H6            1 RES     
   25718 H6        -364.1683   -88.7806   219.6985 H6            1 RES     
   25719 H6        -364.4385   -90.3391   217.0481 H6            1 RES     
   25720 H6        -364.0269   -91.0187   218.6724 H6            1 RES     
   25721 H6        -366.2348   -90.1924   219.5645 H6            1 RES     
   25722 H6        -366.6444   -89.5556   217.9224 H6            1 RES     
   25723 H6        -366.4420   -91.3293   218.1807 H6            1 RES     
   25724 H6        -359.4165   -83.7664   219.1898 H6            1 RES     
   25725 H6        -358.7225   -84.8329   217.9400 H6            1 RES     
   25726 H6        -361.5578   -83.6181   217.7750 H6            1 RES     
   25727 H6        -360.0048   -82.9595   217.2141 H6            1 RES     
   25728 H6        -359.6233   -85.0191   215.7630 H6            1 RES     
   25729 H6        -361.3793   -85.3886   215.9696 H6            1 RES     
   25730 H6        -361.8343   -82.9849   215.0282 H6            1 RES     
   25731 H6        -360.0626   -82.7952   214.9127 H6            1 RES     
   25732 H6        -359.9966   -84.8354   213.3687 H6            1 RES     
   25733 H6        -361.7854   -84.6927   213.2583 H6            1 RES     
   25734 H6        -360.5849   -83.6211   211.3522 H6            1 RES     
   25735 H6        -359.5882   -82.6351   212.4741 H6            1 RES     
   25736 H6        -361.5984   -81.3465   213.1793 H6            1 RES     
   25737 H6        -362.6391   -82.3504   212.0903 H6            1 RES     
   25738 H6        -361.3288   -81.5515   210.1058 H6            1 RES     
   25739 H6        -360.2715   -80.5658   211.1893 H6            1 RES     
   25740 H6        -362.0213   -80.1684   211.0295 H6            1 RES     
   25741 H6        -356.1611   -88.1368   221.3772 H6            1 RES     
   25742 H6        -356.8702   -87.9397   219.7828 H6            1 RES     
   25743 H6        -354.8180   -86.9871   219.7571 H6            1 RES     
   25744 H6        -356.7408   -84.5753   219.6246 H6            1 RES     
   25745 H6        -356.4725   -85.8947   218.3688 H6            1 RES     
   25746 H6        -354.5539   -83.6929   219.1225 H6            1 RES     
   25747 H6        -354.2350   -85.1243   218.0130 H6            1 RES     
   25748 H6        -354.6605   -83.1883   216.7574 H6            1 RES     
   25749 H6        -356.1098   -84.2272   216.5366 H6            1 RES     
   25750 H6        -355.8745   -81.9052   218.5861 H6            1 RES     
   25751 H6        -357.3993   -82.7167   218.0988 H6            1 RES     
   25752 H6        -355.4886   -80.9974   216.3425 H6            1 RES     
   25753 H6        -357.0126   -80.4140   217.0951 H6            1 RES     
   25754 H6        -357.3227   -80.8982   214.6954 H6            1 RES     
   25755 H6        -358.3300   -81.9436   215.7539 H6            1 RES     
   25756 H6        -356.8568   -82.6215   214.9437 H6            1 RES     
   25757 H6        -355.0764   -84.7295   221.8394 H6            1 RES     
   25758 H6        -354.3934   -86.3642   222.1817 H6            1 RES     
   25759 H6        -352.8083   -86.3629   220.4958 H6            1 RES     
   25760 H6        -353.0730   -84.7235   219.9709 H6            1 RES     
   25761 H6        -351.0915   -85.1695   221.0912 H6            1 RES     
   25762 H6        -351.8391   -85.4320   222.6741 H6            1 RES     
   25763 H6        -352.3167   -82.9678   222.8144 H6            1 RES     
   25764 H6        -352.0998   -82.7720   221.0340 H6            1 RES     
   25765 H6        -349.7662   -83.3872   221.0812 H6            1 RES     
   25766 H6        -349.7785   -83.6426   222.8661 H6            1 RES     
   25767 H6        -350.0752   -81.2166   223.2284 H6            1 RES     
   25768 H6        -350.2554   -80.9285   221.4509 H6            1 RES     
   25769 H6        -347.9744   -81.7939   221.0098 H6            1 RES     
   25770 H6        -347.7319   -82.1625   222.7575 H6            1 RES     
   25771 H6        -347.8661   -79.7399   223.3044 H6            1 RES     
   25772 H6        -348.1449   -79.3497   221.5538 H6            1 RES     
   25773 H6        -346.5863   -80.0803   222.0840 H6            1 RES     
   25774 C0        -360.6105   -98.2845   216.8159 C0            1 RES     
   25775 C1        -360.8136   -98.9444   217.9958 C1            1 RES     
   25776 C1        -361.8808   -98.4941   218.6850 C1            1 RES     
   25777 C1        -362.4401   -97.4856   218.0929 C1            1 RES     
   25778 C1        -361.7121   -97.1493   216.8569 C1            1 RES     
   25779 C1        -361.2818   -95.7705   217.3345 C1            1 RES     
   25780 C1        -361.9565   -95.2408   218.3962 C1            1 RES     
   25781 S2        -363.3828   -96.2521   218.9193 S2            1 RES     
   25782 C1        -361.5280   -93.9679   219.1145 C1            1 RES     
   25783 C1        -360.5997   -93.0609   218.5236 C1            1 RES     
   25784 N3        -360.1915   -91.9306   219.1701 N3            1 RES     
   25785 C1        -360.6156   -91.6031   220.4113 C1            1 RES     
   25786 C1        -361.5050   -92.4499   221.0609 C1            1 RES     
   25787 C1        -361.9716   -93.6332   220.4115 C1            1 RES     
   25788 N3        -362.8300   -94.3871   221.1548 N3            1 RES     
   25789 S2        -362.9530   -93.5236   222.5633 S2            1 RES     
   25790 N3        -361.9683   -92.2213   222.3139 N3            1 RES     
   25791 S2        -362.0623   -99.2087   220.1875 S2            1 RES     
   25792 C1        -360.6968  -100.1852   219.9665 C1            1 RES     
   25793 C1        -360.0934   -99.8968   218.7363 C1            1 RES     
   25794 C0        -360.7739   -99.3703   215.6460 C0            1 RES     
   25795 C0        -361.2488  -100.8787   215.3394 C0            1 RES     
   25796 C0        -360.6390  -101.9938   216.2462 C0            1 RES     
   25797 C0        -361.7420  -102.7894   216.9697 C0            1 RES     
   25798 C0        -361.2169  -103.7810   218.0235 C0            1 RES     
   25799 C0        -362.3949  -104.5934   218.5942 C0            1 RES     
   25800 C0        -361.9974  -105.4653   219.7919 C0            1 RES     
   25801 C0        -363.1977  -106.2731   220.2906 C0            1 RES     
   25802 C0        -360.8451  -101.1260   213.8180 C0            1 RES     
   25803 C0        -361.0552  -102.4307   212.9871 C0            1 RES     
   25804 C0        -359.9904  -103.5604   213.1359 C0            1 RES     
   25805 C0        -359.8700  -104.4085   211.8324 C0            1 RES     
   25806 C0        -358.7563  -105.4748   211.8875 C0            1 RES     
   25807 C0        -358.2794  -105.9668   210.4962 C0            1 RES     
   25808 C0        -359.3631  -106.5904   209.6046 C0            1 RES     
   25809 C0        -358.7600  -107.0762   208.2795 C0            1 RES     
   25810 C0        -359.0938   -97.8056   216.6077 C0            1 RES     
   25811 C0        -358.4206   -97.1949   215.2438 C0            1 RES     
   25812 C0        -358.4689   -98.1988   214.0228 C0            1 RES     
   25813 C0        -357.6122   -97.9178   212.7925 C0            1 RES     
   25814 C0        -357.5979   -99.0293   211.7277 C0            1 RES     
   25815 C0        -358.9184   -99.1265   210.9359 C0            1 RES     
   25816 C0        -358.7342   -99.8362   209.5822 C0            1 RES     
   25817 C0        -358.3787  -101.3079   209.7029 C0            1 RES     
   25818 C0        -358.7011   -95.6803   214.8245 C0            1 RES     
   25819 C0        -357.4478   -95.0282   214.1260 C0            1 RES     
   25820 C0        -357.3445   -93.5238   213.7518 C0            1 RES     
   25821 C0        -357.8919   -93.0446   212.3674 C0            1 RES     
   25822 C0        -356.9948   -91.8737   211.8582 C0            1 RES     
   25823 C0        -357.3390   -91.2576   210.4848 C0            1 RES     
   25824 C0        -356.1931   -90.3089   210.0515 C0            1 RES     
   25825 C0        -356.4571   -89.5950   208.7266 C0            1 RES     
   25826 H4        -360.4371   -95.2851   216.9208 H4            1 RES     
   25827 H5        -360.2096   -93.2337   217.5338 H5            1 RES     
   25828 H4        -359.1636  -100.3510   218.4328 H4            1 RES     
   25829 H6        -361.2943   -98.7834   214.8592 H6            1 RES     
   25830 H6        -359.7626   -99.6273   215.4033 H6            1 RES     
   25831 H6        -362.3582  -100.9218   215.4051 H6            1 RES     
   25832 H6        -360.0165  -102.7023   215.6709 H6            1 RES     
   25833 H6        -359.9234  -101.5736   216.9432 H6            1 RES     
   25834 H6        -362.4161  -102.0778   217.4954 H6            1 RES     
   25835 H6        -362.3280  -103.3368   216.1987 H6            1 RES     
   25836 H6        -360.4725  -104.4793   217.5813 H6            1 RES     
   25837 H6        -360.7246  -103.2021   218.8360 H6            1 RES     
   25838 H6        -362.8056  -105.2372   217.7843 H6            1 RES     
   25839 H6        -363.1930  -103.8971   218.9330 H6            1 RES     
   25840 H6        -361.1825  -106.1665   219.5114 H6            1 RES     
   25841 H6        -361.6399  -104.8107   220.6169 H6            1 RES     
   25842 H6        -364.0343  -105.5971   220.5713 H6            1 RES     
   25843 H6        -363.5487  -106.9695   219.4989 H6            1 RES     
   25844 H6        -362.9117  -106.8681   221.1833 H6            1 RES     
   25845 H6        -361.4096  -100.3485   213.2579 H6            1 RES     
   25846 H6        -359.7653  -100.8928   213.6834 H6            1 RES     
   25847 H6        -362.0934  -102.8166   213.0347 H6            1 RES     
   25848 H6        -360.9072  -102.0608   211.9477 H6            1 RES     
   25849 H6        -358.9917  -103.0887   213.2771 H6            1 RES     
   25850 H6        -360.2091  -104.2009   214.0144 H6            1 RES     
   25851 H6        -360.8364  -104.8843   211.5627 H6            1 RES     
   25852 H6        -359.5975  -103.7190   211.0193 H6            1 RES     
   25853 H6        -357.8527  -105.0285   212.3577 H6            1 RES     
   25854 H6        -359.0876  -106.3250   212.5207 H6            1 RES     
   25855 H6        -357.4755  -106.7187   210.6583 H6            1 RES     
   25856 H6        -357.8302  -105.1077   209.9491 H6            1 RES     
   25857 H6        -360.1424  -105.8327   209.3770 H6            1 RES     
   25858 H6        -359.8319  -107.4529   210.1222 H6            1 RES     
   25859 H6        -357.9944  -107.8608   208.4637 H6            1 RES     
   25860 H6        -358.2832  -106.2353   207.7303 H6            1 RES     
   25861 H6        -359.5545  -107.5081   207.6346 H6            1 RES     
   25862 H6        -358.8641   -97.0898   217.4272 H6            1 RES     
   25863 H6        -358.4549   -98.6903   216.8316 H6            1 RES     
   25864 H6        -357.3564   -97.1716   215.5642 H6            1 RES     
   25865 H6        -359.5081   -98.2920   213.6547 H6            1 RES     
   25866 H6        -358.0644   -99.1662   214.3902 H6            1 RES     
   25867 H6        -357.9975   -97.0282   212.2637 H6            1 RES     
   25868 H6        -356.5668   -97.7774   213.1432 H6            1 RES     
   25869 H6        -356.8084   -98.7228   211.0092 H6            1 RES     
   25870 H6        -357.3028  -100.0114   212.1598 H6            1 RES     
   25871 H6        -359.2508   -98.0984   210.6789 H6            1 RES     
   25872 H6        -359.7183   -99.6004   211.5429 H6            1 RES     
   25873 H6        -357.9406   -99.3158   209.0032 H6            1 RES     
   25874 H6        -359.6820   -99.7595   209.0066 H6            1 RES     
   25875 H6        -358.2493  -101.7432   208.6887 H6            1 RES     
   25876 H6        -359.2164  -101.8163   210.2011 H6            1 RES     
   25877 H6        -357.4403  -101.4606   210.2744 H6            1 RES     
   25878 H6        -359.6458   -95.5844   214.2456 H6            1 RES     
   25879 H6        -358.7755   -95.0736   215.7415 H6            1 RES     
   25880 H6        -356.6351   -95.1790   214.8688 H6            1 RES     
   25881 H6        -357.1028   -95.5302   213.2284 H6            1 RES     
   25882 H6        -356.2404   -93.4196   213.6545 H6            1 RES     
   25883 H6        -357.6363   -92.8417   214.5770 H6            1 RES     
   25884 H6        -358.9646   -92.7629   212.4440 H6            1 RES     
   25885 H6        -357.7940   -93.8563   211.6140 H6            1 RES     
   25886 H6        -355.9654   -92.2878   211.7633 H6            1 RES     
   25887 H6        -356.9739   -91.0573   212.6118 H6            1 RES     
   25888 H6        -358.2978   -90.7002   210.5564 H6            1 RES     
   25889 H6        -357.4404   -92.0544   209.7162 H6            1 RES     
   25890 H6        -355.2570   -90.9012   209.9385 H6            1 RES     
   25891 H6        -356.0230   -89.5353   210.8311 H6            1 RES     
   25892 H6        -357.3452   -88.9350   208.8119 H6            1 RES     
   25893 H6        -356.6109   -90.3253   207.9052 H6            1 RES     
   25894 H6        -355.5773   -88.9626   208.4700 H6            1 RES     
   25895 C0        -355.4355  -104.6832   226.0389 C0            1 RES     
   25896 C1        -356.0572  -104.0660   227.0883 C1            1 RES     
   25897 C1        -357.3915  -104.2560   227.1077 C1            1 RES     
   25898 C1        -357.7913  -104.9376   226.0801 C1            1 RES     
   25899 C1        -356.6489  -105.2727   225.2120 C1            1 RES     
   25900 C1        -357.1494  -104.4626   224.0256 C1            1 RES     
   25901 C1        -358.4670  -104.1063   224.0265 C1            1 RES     
   25902 S2        -359.4114  -104.8457   225.4019 S2            1 RES     
   25903 C1        -359.0773  -103.1392   223.0204 C1            1 RES     
   25904 C1        -358.4008  -102.8051   221.8103 C1            1 RES     
   25905 N3        -358.9287  -101.9210   220.9147 N3            1 RES     
   25906 C1        -360.1065  -101.2891   221.1167 C1            1 RES     
   25907 C1        -360.8140  -101.5470   222.2842 C1            1 RES     
   25908 C1        -360.3057  -102.4801   223.2385 C1            1 RES     
   25909 N3        -361.0831  -102.6382   224.3467 N3            1 RES     
   25910 S2        -362.3508  -101.6120   224.0564 S2            1 RES     
   25911 N3        -361.9900  -100.9462   222.5886 N3            1 RES     
   25912 S2        -358.1759  -103.4010   228.3139 S2            1 RES     
   25913 C1        -356.7261  -102.7374   228.8840 C1            1 RES     
   25914 C1        -355.6567  -103.1605   228.0852 C1            1 RES     
   25915 C0        -354.4321  -105.7653   226.6690 C0            1 RES     
   25916 C0        -354.0198  -106.5007   228.0415 C0            1 RES     
   25917 C0        -353.7383  -105.5735   229.2656 C0            1 RES     
   25918 C0        -354.6592  -105.9199   230.4510 C0            1 RES     
   25919 C0        -354.5726  -104.9310   231.6274 C0            1 RES     
   25920 C0        -355.4461  -105.4401   232.7899 C0            1 RES     
   25921 C0        -355.5809  -104.4219   233.9290 C0            1 RES     
   25922 C0        -356.4275  -104.9972   235.0668 C0            1 RES     
   25923 C0        -352.7140  -107.3362   227.6735 C0            1 RES     
   25924 C0        -351.8704  -108.2366   228.6298 C0            1 RES     
   25925 C0        -350.8009  -107.5367   229.5235 C0            1 RES     
   25926 C0        -349.6051  -108.4879   229.8360 C0            1 RES     
   25927 C0        -348.4674  -107.8130   230.6301 C0            1 RES     
   25928 C0        -347.0999  -108.5360   230.5184 C0            1 RES     
   25929 C0        -347.0807  -109.9977   230.9889 C0            1 RES     
   25930 C0        -345.6679  -110.5856   230.8707 C0            1 RES     
   25931 C0        -354.4246  -103.7238   225.2448 C0            1 RES     
   25932 C0        -353.3433  -104.1534   224.0904 C0            1 RES     
   25933 C0        -352.2584  -105.1820   224.6061 C0            1 RES     
   25934 C0        -351.0093  -105.4312   223.7670 C0            1 RES     
   25935 C0        -349.9367  -106.3189   224.4236 C0            1 RES     
   25936 C0        -350.3383  -107.8071   224.4874 C0            1 RES     
   25937 C0        -349.1181  -108.7328   224.6435 C0            1 RES     
   25938 C0        -348.4010  -108.5856   225.9743 C0            1 RES     
   25939 C0        -353.8407  -104.4560   222.6040 C0            1 RES     
   25940 C0        -352.7773  -104.0059   221.5314 C0            1 RES     
   25941 C0        -353.0305  -104.0125   219.9986 C0            1 RES     
   25942 C0        -352.7412  -105.3164   219.1850 C0            1 RES     
   25943 C0        -352.2339  -104.9126   217.7656 C0            1 RES     
   25944 C0        -351.8597  -106.0512   216.7920 C0            1 RES     
   25945 C0        -351.1432  -105.4493   215.5570 C0            1 RES     
   25946 C0        -350.7788  -106.4856   214.4950 C0            1 RES     
   25947 H4        -356.4845  -104.1128   223.2801 H4            1 RES     
   25948 H5        -357.4578  -103.2621   221.5582 H5            1 RES     
   25949 H4        -354.6534  -102.7913   228.2269 H4            1 RES     
   25950 H6        -354.5299  -106.6115   225.9557 H6            1 RES     
   25951 H6        -353.4819  -105.2717   226.6346 H6            1 RES     
   25952 H6        -354.8195  -107.2256   228.3098 H6            1 RES     
   25953 H6        -352.6895  -105.6419   229.6057 H6            1 RES     
   25954 H6        -353.8205  -104.5301   228.9842 H6            1 RES     
   25955 H6        -355.7149  -105.9220   230.1007 H6            1 RES     
   25956 H6        -354.3943  -106.9423   230.8001 H6            1 RES     
   25957 H6        -353.5239  -104.8192   231.9810 H6            1 RES     
   25958 H6        -354.9401  -103.9398   231.2809 H6            1 RES     
   25959 H6        -354.9992  -106.3813   233.1819 H6            1 RES     
   25960 H6        -356.4681  -105.6629   232.4128 H6            1 RES     
   25961 H6        -354.5810  -104.1466   234.3275 H6            1 RES     
   25962 H6        -356.0781  -103.5054   233.5421 H6            1 RES     
   25963 H6        -357.4334  -105.2905   234.6956 H6            1 RES     
   25964 H6        -355.9307  -105.8907   235.5024 H6            1 RES     
   25965 H6        -356.5554  -104.2384   235.8672 H6            1 RES     
   25966 H6        -353.0518  -108.0276   226.8705 H6            1 RES     
   25967 H6        -351.9629  -106.6569   227.2120 H6            1 RES     
   25968 H6        -352.4827  -108.9682   229.1944 H6            1 RES     
   25969 H6        -351.2662  -108.8282   227.9058 H6            1 RES     
   25970 H6        -350.3636  -106.6871   228.9517 H6            1 RES     
   25971 H6        -351.2561  -107.1424   230.4547 H6            1 RES     
   25972 H6        -349.9396  -109.4072   230.3615 H6            1 RES     
   25973 H6        -349.1705  -108.7923   228.8720 H6            1 RES     
   25974 H6        -348.2888  -106.7980   230.2122 H6            1 RES     
   25975 H6        -348.7736  -107.6975   231.6915 H6            1 RES     
   25976 H6        -346.3603  -107.9594   231.1171 H6            1 RES     
   25977 H6        -346.7674  -108.5077   229.4565 H6            1 RES     
   25978 H6        -347.7651  -110.6031   230.3579 H6            1 RES     
   25979 H6        -347.4076  -110.0610   232.0475 H6            1 RES     
   25980 H6        -344.9565  -110.0239   231.5142 H6            1 RES     
   25981 H6        -345.3082  -110.5419   229.8196 H6            1 RES     
   25982 H6        -345.6685  -111.6478   231.1954 H6            1 RES     
   25983 H6        -355.0303  -102.8918   224.8233 H6            1 RES     
   25984 H6        -353.7891  -103.2338   226.0176 H6            1 RES     
   25985 H6        -352.8046  -103.1872   223.9809 H6            1 RES     
   25986 H6        -352.7246  -106.1738   224.7589 H6            1 RES     
   25987 H6        -351.8442  -104.7622   225.5478 H6            1 RES     
   25988 H6        -351.2824  -105.9624   222.8382 H6            1 RES     
   25989 H6        -350.5455  -104.4417   223.5635 H6            1 RES     
   25990 H6        -349.0576  -106.2467   223.7487 H6            1 RES     
   25991 H6        -349.6332  -105.9304   225.4213 H6            1 RES     
   25992 H6        -350.7921  -108.0909   223.5143 H6            1 RES     
   25993 H6        -351.0946  -107.9868   225.2803 H6            1 RES     
   25994 H6        -348.4005  -108.5316   223.8185 H6            1 RES     
   25995 H6        -349.4559  -109.7878   224.5519 H6            1 RES     
   25996 H6        -347.5284  -109.2730   226.0041 H6            1 RES     
   25997 H6        -349.1043  -108.8733   226.7687 H6            1 RES     
   25998 H6        -348.0393  -107.5496   226.1362 H6            1 RES     
   25999 H6        -354.1815  -105.5088   222.4930 H6            1 RES     
   26000 H6        -354.6786  -103.7784   222.3729 H6            1 RES     
   26001 H6        -352.6090  -102.9344   221.7737 H6            1 RES     
   26002 H6        -351.8008  -104.4697   221.6225 H6            1 RES     
   26003 H6        -352.2377  -103.3060   219.6641 H6            1 RES     
   26004 H6        -353.9917  -103.5409   219.7069 H6            1 RES     
   26005 H6        -353.6415  -105.9676   219.1511 H6            1 RES     
   26006 H6        -351.9115  -105.8870   219.6566 H6            1 RES     
   26007 H6        -351.3036  -104.3209   217.9233 H6            1 RES     
   26008 H6        -352.9822  -104.2592   217.2677 H6            1 RES     
   26009 H6        -352.7791  -106.5927   216.4812 H6            1 RES     
   26010 H6        -351.1656  -106.7684   217.2816 H6            1 RES     
   26011 H6        -350.2014  -104.9573   215.8899 H6            1 RES     
   26012 H6        -351.7874  -104.6796   215.0798 H6            1 RES     
   26013 H6        -351.6951  -106.9556   214.0813 H6            1 RES     
   26014 H6        -350.1135  -107.2683   214.9151 H6            1 RES     
   26015 H6        -350.2399  -105.9814   213.6613 H6            1 RES     
   26016 C0        -355.1131   -95.3424   234.1280 C0            1 RES     
   26017 C1        -356.4185   -94.9472   234.0343 C1            1 RES     
   26018 C1        -357.2926   -95.8790   234.4637 C1            1 RES     
   26019 C1        -356.6908   -96.9723   234.8141 C1            1 RES     
   26020 C1        -355.2368   -96.8434   234.6134 C1            1 RES     
   26021 C1        -355.1581   -97.9325   233.5541 C1            1 RES     
   26022 C1        -356.2108   -98.7973   233.4710 C1            1 RES     
   26023 S2        -357.4411   -98.5629   234.7983 S2            1 RES     
   26024 C1        -356.3771   -99.8141   232.3492 C1            1 RES     
   26025 C1        -355.2858  -100.1667   231.5016 C1            1 RES     
   26026 N3        -355.4317  -101.0583   230.4789 N3            1 RES     
   26027 C1        -356.6116  -101.6489   230.1848 C1            1 RES     
   26028 C1        -357.7265  -101.3385   230.9534 C1            1 RES     
   26029 C1        -357.6122  -100.4248   232.0450 C1            1 RES     
   26030 N3        -358.7764  -100.1925   232.7145 N3            1 RES     
   26031 S2        -359.8627  -101.1464   231.9053 S2            1 RES     
   26032 N3        -358.9564  -101.8589   230.7227 N3            1 RES     
   26033 S2        -358.8954   -95.4547   234.2348 S2            1 RES     
   26034 C1        -358.4764   -93.9641   233.5495 C1            1 RES     
   26035 C1        -357.0835   -93.8473   233.4671 C1            1 RES     
   26036 C0        -354.3992   -94.3363   235.1540 C0            1 RES     
   26037 C0        -354.6812   -93.1662   236.2245 C0            1 RES     
   26038 C0        -355.5768   -91.9838   235.7372 C0            1 RES     
   26039 C0        -356.8191   -91.8193   236.6331 C0            1 RES     
   26040 C0        -357.8444   -90.7977   236.1089 C0            1 RES     
   26041 C0        -358.9796   -90.6371   237.1380 C0            1 RES     
   26042 C0        -360.1475   -89.7914   236.6151 C0            1 RES     
   26043 C0        -361.2244   -89.6382   237.6917 C0            1 RES     
   26044 C0        -353.2350   -92.6309   236.6255 C0            1 RES     
   26045 C0        -352.8998   -91.4800   237.6254 C0            1 RES     
   26046 C0        -352.9583   -90.0171   237.0880 C0            1 RES     
   26047 C0        -351.9635   -89.0877   237.8490 C0            1 RES     
   26048 C0        -351.9041   -87.6517   237.2878 C0            1 RES     
   26049 C0        -350.6134   -86.8772   237.6615 C0            1 RES     
   26050 C0        -350.3495   -86.7121   239.1652 C0            1 RES     
   26051 C0        -349.0730   -85.8940   239.4037 C0            1 RES     
   26052 C0        -354.2737   -95.0894   232.7848 C0            1 RES     
   26053 C0        -352.6521   -95.2183   232.5844 C0            1 RES     
   26054 C0        -351.8309   -94.2306   233.5069 C0            1 RES     
   26055 C0        -350.3518   -93.9964   233.2170 C0            1 RES     
   26056 C0        -349.6774   -92.8992   234.0601 C0            1 RES     
   26057 C0        -349.4483   -93.3176   235.5273 C0            1 RES     
   26058 C0        -348.3501   -92.4797   236.2066 C0            1 RES     
   26059 C0        -348.7190   -91.0181   236.3934 C0            1 RES     
   26060 C0        -351.9770   -96.6584   232.4468 C0            1 RES     
   26061 C0        -350.7424   -96.6311   231.4675 C0            1 RES     
   26062 C0        -349.9774   -97.8984   230.9959 C0            1 RES     
   26063 C0        -348.7957   -98.4413   231.8647 C0            1 RES     
   26064 C0        -347.7200   -99.0511   230.9127 C0            1 RES     
   26065 C0        -346.4420   -99.6286   231.5586 C0            1 RES     
   26066 C0        -345.4062   -99.9376   230.4484 C0            1 RES     
   26067 C0        -344.1184  -100.5721   230.9717 C0            1 RES     
   26068 H4        -354.3654   -97.9602   232.8532 H4            1 RES     
   26069 H5        -354.3038   -99.7521   231.6611 H5            1 RES     
   26070 H4        -356.6054   -93.0070   232.9891 H4            1 RES     
   26071 H6        -353.7183   -95.0178   235.7074 H6            1 RES     
   26072 H6        -353.8961   -93.6424   234.5111 H6            1 RES     
   26073 H6        -355.1372   -93.6184   237.1326 H6            1 RES     
   26074 H6        -355.0271   -91.0257   235.7218 H6            1 RES     
   26075 H6        -355.8465   -92.1102   234.6951 H6            1 RES     
   26076 H6        -357.3414   -92.7982   236.7113 H6            1 RES     
   26077 H6        -356.4710   -91.5157   237.6451 H6            1 RES     
   26078 H6        -357.3695   -89.8075   235.9321 H6            1 RES     
   26079 H6        -358.2543   -91.1741   235.1456 H6            1 RES     
   26080 H6        -358.5606   -90.1672   238.0560 H6            1 RES     
   26081 H6        -359.3805   -91.6396   237.4040 H6            1 RES     
   26082 H6        -359.7945   -88.7825   236.3122 H6            1 RES     
   26083 H6        -360.5957   -90.2957   235.7309 H6            1 RES     
   26084 H6        -361.5917   -90.6341   238.0216 H6            1 RES     
   26085 H6        -360.8147   -89.0967   238.5715 H6            1 RES     
   26086 H6        -362.0842   -89.0615   237.2906 H6            1 RES     
   26087 H6        -352.7240   -93.5227   237.0502 H6            1 RES     
   26088 H6        -352.6778   -92.3556   235.7024 H6            1 RES     
   26089 H6        -353.4040   -91.5926   238.6062 H6            1 RES     
   26090 H6        -351.8157   -91.6524   237.8102 H6            1 RES     
   26091 H6        -352.6155   -90.0157   236.0286 H6            1 RES     
   26092 H6        -353.9925   -89.6190   237.1281 H6            1 RES     
   26093 H6        -352.1804   -89.0598   238.9377 H6            1 RES     
   26094 H6        -350.9567   -89.5121   237.7186 H6            1 RES     
   26095 H6        -351.8974   -87.6988   236.1767 H6            1 RES     
   26096 H6        -352.8113   -87.0930   237.6016 H6            1 RES     
   26097 H6        -350.6762   -85.8677   237.1979 H6            1 RES     
   26098 H6        -349.7407   -87.4002   237.2101 H6            1 RES     
   26099 H6        -350.2177   -87.7101   239.6340 H6            1 RES     
   26100 H6        -351.2034   -86.1919   239.6466 H6            1 RES     
   26101 H6        -349.1775   -84.8739   238.9745 H6            1 RES     
   26102 H6        -348.1934   -86.3885   238.9370 H6            1 RES     
   26103 H6        -348.8808   -85.7963   240.4934 H6            1 RES     
   26104 H6        -354.7454   -95.7036   231.9867 H6            1 RES     
   26105 H6        -354.4841   -94.0387   232.4799 H6            1 RES     
   26106 H6        -352.5649   -94.8031   231.5570 H6            1 RES     
   26107 H6        -351.8846   -94.5680   234.5592 H6            1 RES     
   26108 H6        -352.2734   -93.2213   233.3655 H6            1 RES     
   26109 H6        -349.7774   -94.9131   233.4392 H6            1 RES     
   26110 H6        -350.2678   -93.6970   232.1499 H6            1 RES     
   26111 H6        -348.6761   -92.7635   233.5994 H6            1 RES     
   26112 H6        -350.2201   -91.9304   233.9874 H6            1 RES     
   26113 H6        -349.0644   -94.3597   235.5399 H6            1 RES     
   26114 H6        -350.3966   -93.2980   236.1048 H6            1 RES     
   26115 H6        -347.4171   -92.5462   235.6057 H6            1 RES     
   26116 H6        -348.1409   -92.9104   237.2098 H6            1 RES     
   26117 H6        -347.8739   -90.4803   236.8746 H6            1 RES     
   26118 H6        -349.5912   -90.9743   237.0610 H6            1 RES     
   26119 H6        -348.9475   -90.5232   235.4274 H6            1 RES     
   26120 H6        -351.7589   -97.1047   233.4417 H6            1 RES     
   26121 H6        -352.6707   -97.3168   231.8992 H6            1 RES     
   26122 H6        -351.1685   -96.2081   230.5323 H6            1 RES     
   26123 H6        -349.9449   -95.9499   231.7444 H6            1 RES     
   26124 H6        -349.4789   -97.5004   230.0835 H6            1 RES     
   26125 H6        -350.6441   -98.7110   230.6403 H6            1 RES     
   26126 H6        -349.1639   -99.1691   232.6201 H6            1 RES     
   26127 H6        -348.2946   -97.6039   232.3975 H6            1 RES     
   26128 H6        -347.3848   -98.2220   230.2489 H6            1 RES     
   26129 H6        -348.1787   -99.8407   230.2794 H6            1 RES     
   26130 H6        -346.6943  -100.5529   232.1217 H6            1 RES     
   26131 H6        -345.9926   -98.8904   232.2578 H6            1 RES     
   26132 H6        -345.1336   -98.9883   229.9342 H6            1 RES     
   26133 H6        -345.8477  -100.6261   229.6958 H6            1 RES     
   26134 H6        -344.3318  -101.5585   231.4332 H6            1 RES     
   26135 H6        -343.6224   -99.9114   231.7128 H6            1 RES     
   26136 H6        -343.4168  -100.7303   230.1217 H6            1 RES     
   26137 C0        -363.2906   -88.1888   228.2337 C0            1 RES     
   26138 C1        -364.2910   -89.1078   228.0801 C1            1 RES     
   26139 C1        -364.8215   -89.5225   229.2477 C1            1 RES     
   26140 C1        -364.2125   -88.9943   230.2629 C1            1 RES     
   26141 C1        -363.1211   -88.1167   229.8053 C1            1 RES     
   26142 C1        -362.0152   -88.9531   230.4312 C1            1 RES     
   26143 C1        -362.3809   -89.8479   231.3948 C1            1 RES     
   26144 S2        -364.1407   -89.7232   231.8618 S2            1 RES     
   26145 C1        -361.4346   -90.8890   231.9783 C1            1 RES     
   26146 C1        -360.0224   -90.7829   231.8102 C1            1 RES     
   26147 N3        -359.1687   -91.7238   232.3084 N3            1 RES     
   26148 C1        -359.5951   -92.8222   232.9709 C1            1 RES     
   26149 C1        -360.9598   -93.0062   233.1552 C1            1 RES     
   26150 C1        -361.8860   -92.0354   232.6661 C1            1 RES     
   26151 N3        -363.1955   -92.3338   232.8975 N3            1 RES     
   26152 S2        -363.1069   -93.7799   233.7009 S2            1 RES     
   26153 N3        -361.4860   -94.0853   233.7841 N3            1 RES     
   26154 S2        -365.9576   -90.7396   229.0763 S2            1 RES     
   26155 C1        -365.7945   -90.7514   227.3909 C1            1 RES     
   26156 C1        -364.8137   -89.8332   226.9964 C1            1 RES     
   26157 C0        -363.7916   -86.8390   227.5255 C0            1 RES     
   26158 C0        -365.0763   -86.1248   226.8667 C0            1 RES     
   26159 C0        -365.8394   -86.9423   225.7772 C0            1 RES     
   26160 C0        -367.3173   -87.1419   226.1631 C0            1 RES     
   26161 C0        -368.0891   -88.0954   225.2333 C0            1 RES     
   26162 C0        -369.5724   -88.1266   225.6485 C0            1 RES     
   26163 C0        -370.3799   -89.1997   224.9076 C0            1 RES     
   26164 C0        -371.8489   -89.1578   225.3349 C0            1 RES     
   26165 C0        -364.5089   -84.7731   226.2423 C0            1 RES     
   26166 C0        -365.3119   -83.6853   225.4622 C0            1 RES     
   26167 C0        -365.5629   -83.9251   223.9418 C0            1 RES     
   26168 C0        -365.6769   -82.5795   223.1614 C0            1 RES     
   26169 C0        -365.8209   -82.7582   221.6357 C0            1 RES     
   26170 C0        -365.4336   -81.5034   220.8104 C0            1 RES     
   26171 C0        -366.2318   -80.2296   221.1240 C0            1 RES     
   26172 C0        -365.7877   -79.0754   220.2150 C0            1 RES     
   26173 C0        -361.9739   -88.5338   227.3849 C0            1 RES     
   26174 C0        -360.6704   -87.5724   227.1339 C0            1 RES     
   26175 C0        -361.0262   -86.2244   226.3873 C0            1 RES     
   26176 C0        -359.9013   -85.3797   225.7977 C0            1 RES     
   26177 C0        -360.3515   -84.1760   224.9504 C0            1 RES     
   26178 C0        -360.9365   -83.0254   225.7954 C0            1 RES     
   26179 C0        -360.8944   -81.6780   225.0521 C0            1 RES     
   26180 C0        -361.8056   -81.6166   223.8384 C0            1 RES     
   26181 C0        -359.5833   -87.3846   228.2877 C0            1 RES     
   26182 C0        -358.1304   -87.2257   227.6981 C0            1 RES     
   26183 C0        -356.8394   -87.1918   228.5617 C0            1 RES     
   26184 C0        -356.3460   -85.8249   229.1396 C0            1 RES     
   26185 C0        -354.7859   -85.8362   229.1755 C0            1 RES     
   26186 C0        -354.0758   -84.5657   229.6911 C0            1 RES     
   26187 C0        -352.5576   -84.6795   229.4033 C0            1 RES     
   26188 C0        -351.7445   -83.4968   229.9277 C0            1 RES     
   26189 H4        -361.0214   -88.9081   230.0696 H4            1 RES     
   26190 H5        -359.5868   -89.9391   231.3005 H5            1 RES     
   26191 H4        -364.4964   -89.7380   225.9701 H4            1 RES     
   26192 H6        -363.4037   -86.0599   228.2162 H6            1 RES     
   26193 H6        -363.3018   -86.8623   226.5730 H6            1 RES     
   26194 H6        -365.7848   -85.8497   227.6787 H6            1 RES     
   26195 H6        -365.7991   -86.4535   224.7874 H6            1 RES     
   26196 H6        -365.3425   -87.8865   225.5870 H6            1 RES     
   26197 H6        -367.3693   -87.5696   227.1886 H6            1 RES     
   26198 H6        -367.8064   -86.1427   226.1653 H6            1 RES     
   26199 H6        -368.0141   -87.7691   224.1725 H6            1 RES     
   26200 H6        -367.6463   -89.1117   225.3264 H6            1 RES     
   26201 H6        -370.0156   -87.1246   225.4521 H6            1 RES     
   26202 H6        -369.6460   -88.3397   226.7373 H6            1 RES     
   26203 H6        -370.3196   -89.0452   223.8090 H6            1 RES     
   26204 H6        -369.9652   -90.2022   225.1526 H6            1 RES     
   26205 H6        -371.9405   -89.3013   226.4334 H6            1 RES     
   26206 H6        -372.3015   -88.1804   225.0613 H6            1 RES     
   26207 H6        -372.4165   -89.9651   224.8262 H6            1 RES     
   26208 H6        -364.0833   -84.2294   227.1141 H6            1 RES     
   26209 H6        -363.6552   -85.0111   225.5692 H6            1 RES     
   26210 H6        -366.2240   -83.3492   225.9953 H6            1 RES     
   26211 H6        -364.6041   -82.8264   225.4828 H6            1 RES     
   26212 H6        -364.6745   -84.4425   223.5141 H6            1 RES     
   26213 H6        -366.4570   -84.5610   223.7809 H6            1 RES     
   26214 H6        -366.5061   -81.9506   223.5486 H6            1 RES     
   26215 H6        -364.7369   -82.0300   223.3206 H6            1 RES     
   26216 H6        -365.1178   -83.5506   221.2974 H6            1 RES     
   26217 H6        -366.8532   -83.0913   221.3969 H6            1 RES     
   26218 H6        -365.5656   -81.7504   219.7336 H6            1 RES     
   26219 H6        -364.3542   -81.2875   220.9755 H6            1 RES     
   26220 H6        -366.0590   -79.9297   222.1793 H6            1 RES     
   26221 H6        -367.3154   -80.4114   220.9684 H6            1 RES     
   26222 H6        -365.9737   -79.3253   219.1480 H6            1 RES     
   26223 H6        -364.7046   -78.8621   220.3473 H6            1 RES     
   26224 H6        -366.3573   -78.1544   220.4624 H6            1 RES     
   26225 H6        -361.5879   -89.5049   227.7651 H6            1 RES     
   26226 H6        -362.3215   -88.7645   226.3519 H6            1 RES     
   26227 H6        -360.1328   -88.1918   226.3835 H6            1 RES     
   26228 H6        -361.5844   -85.5545   227.0683 H6            1 RES     
   26229 H6        -361.6210   -86.5043   225.4915 H6            1 RES     
   26230 H6        -359.2982   -84.9397   226.6113 H6            1 RES     
   26231 H6        -359.2990   -86.0442   225.1410 H6            1 RES     
   26232 H6        -359.4194   -83.7954   224.4816 H6            1 RES     
   26233 H6        -361.0434   -84.4813   224.1340 H6            1 RES     
   26234 H6        -360.2917   -82.8818   226.6882 H6            1 RES     
   26235 H6        -361.9603   -83.2668   226.1511 H6            1 RES     
   26236 H6        -359.8496   -81.4698   224.7344 H6            1 RES     
   26237 H6        -361.2043   -80.8731   225.7533 H6            1 RES     
   26238 H6        -361.7084   -80.6228   223.3508 H6            1 RES     
   26239 H6        -362.8405   -81.7383   224.1886 H6            1 RES     
   26240 H6        -361.5557   -82.4004   223.0943 H6            1 RES     
   26241 H6        -359.8762   -86.5813   228.9988 H6            1 RES     
   26242 H6        -359.4896   -88.3362   228.8356 H6            1 RES     
   26243 H6        -358.0108   -88.1329   227.0675 H6            1 RES     
   26244 H6        -357.9940   -86.3921   227.0173 H6            1 RES     
   26245 H6        -356.0785   -87.4473   227.7902 H6            1 RES     
   26246 H6        -356.7878   -88.0074   229.3123 H6            1 RES     
   26247 H6        -356.7980   -85.6325   230.1369 H6            1 RES     
   26248 H6        -356.6313   -84.9944   228.4577 H6            1 RES     
   26249 H6        -354.4505   -85.9734   228.1225 H6            1 RES     
   26250 H6        -354.4271   -86.7030   229.7712 H6            1 RES     
   26251 H6        -354.2565   -84.4548   230.7821 H6            1 RES     
   26252 H6        -354.4626   -83.6648   229.1670 H6            1 RES     
   26253 H6        -352.4019   -84.7384   228.3023 H6            1 RES     
   26254 H6        -352.1509   -85.6067   229.8619 H6            1 RES     
   26255 H6        -351.8128   -83.4392   231.0338 H6            1 RES     
   26256 H6        -352.0958   -82.5436   229.4806 H6            1 RES     
   26257 H6        -350.6749   -83.6372   229.6521 H6            1 RES     
   26258 C0        -368.0297   -97.1386   221.1464 C0            1 RES     
   26259 C1        -368.2957   -98.0542   222.1261 C1            1 RES     
   26260 C1        -369.2292   -97.6413   223.0064 C1            1 RES     
   26261 C1        -369.6207   -96.4315   222.7542 C1            1 RES     
   26262 C1        -368.9011   -95.8934   221.5865 C1            1 RES     
   26263 C1        -368.2035   -94.7885   222.3657 C1            1 RES     
   26264 C1        -368.7199   -94.4670   223.5876 C1            1 RES     
   26265 S2        -370.2818   -95.3345   223.9595 S2            1 RES     
   26266 C1        -368.0324   -93.5283   224.5704 C1            1 RES     
   26267 C1        -366.9816   -92.6592   224.1529 C1            1 RES     
   26268 N3        -366.3435   -91.8326   225.0313 N3            1 RES     
   26269 C1        -366.6426   -91.7931   226.3491 C1            1 RES     
   26270 C1        -367.6413   -92.6276   226.8351 C1            1 RES     
   26271 C1        -368.3467   -93.4941   225.9455 C1            1 RES     
   26272 N3        -369.2936   -94.2712   226.5429 N3            1 RES     
   26273 S2        -369.1909   -93.8192   228.1334 S2            1 RES     
   26274 N3        -367.9965   -92.6785   228.1420 N3            1 RES     
   26275 S2        -369.4693   -98.7006   224.2797 S2            1 RES     
   26276 C1        -368.3178   -99.7896   223.6833 C1            1 RES     
   26277 C1        -367.7292   -99.2779   222.5204 C1            1 RES     
   26278 C0        -368.4434   -97.8199   219.7539 C0            1 RES     
   26279 C0        -369.2006   -99.0870   219.1092 C0            1 RES     
   26280 C0        -368.7647  -100.4924   219.6310 C0            1 RES     
   26281 C0        -369.9604  -101.2636   220.2215 C0            1 RES     
   26282 C0        -369.5781  -102.5784   220.9248 C0            1 RES     
   26283 C0        -370.8576  -103.3112   221.3712 C0            1 RES     
   26284 C0        -370.5720  -104.5311   222.2560 C0            1 RES     
   26285 C0        -371.8759  -105.2363   222.6366 C0            1 RES     
   26286 C0        -368.9198   -98.9703   217.5451 C0            1 RES     
   26287 C0        -369.4040   -99.9442   216.4253 C0            1 RES     
   26288 C0        -368.5589  -101.2303   216.1724 C0            1 RES     
   26289 C0        -368.6564  -101.6962   214.6871 C0            1 RES     
   26290 C0        -367.7559  -102.9045   214.3562 C0            1 RES     
   26291 C0        -367.4421  -103.0675   212.8460 C0            1 RES     
   26292 C0        -368.6619  -103.2359   211.9284 C0            1 RES     
   26293 C0        -368.2200  -103.4317   210.4717 C0            1 RES     
   26294 C0        -366.4621   -96.8768   220.9291 C0            1 RES     
   26295 C0        -365.7519   -96.0346   219.7155 C0            1 RES     
   26296 C0        -366.0399   -96.6431   218.2845 C0            1 RES     
   26297 C0        -365.2039   -96.1801   217.0957 C0            1 RES     
   26298 C0        -365.4430   -96.9436   215.7806 C0            1 RES     
   26299 C0        -366.7940   -96.6017   215.1188 C0            1 RES     
   26300 C0        -366.8059   -96.9331   213.6155 C0            1 RES     
   26301 C0        -366.7213   -98.4191   213.3128 C0            1 RES     
   26302 C0        -365.7687   -94.4385   219.7355 C0            1 RES     
   26303 C0        -364.4506   -93.8348   219.1174 C0            1 RES     
   26304 C0        -364.0904   -92.3237   219.1420 C0            1 RES     
   26305 C0        -364.6039   -91.4000   217.9892 C0            1 RES     
   26306 C0        -363.5316   -90.2982   217.7220 C0            1 RES     
   26307 C0        -363.8199   -89.2813   216.5965 C0            1 RES     
   26308 C0        -362.5406   -88.4517   216.3207 C0            1 RES     
   26309 C0        -362.7299   -87.3685   215.2599 C0            1 RES     
   26310 H4        -367.3041   -94.3539   222.0158 H4            1 RES     
   26311 H5        -366.6760   -92.6156   223.1202 H5            1 RES     
   26312 H4        -366.9135   -99.7777   222.0225 H4            1 RES     
   26313 H6        -368.8830   -96.9625   219.2006 H6            1 RES     
   26314 H6        -367.5087   -98.1628   219.3583 H6            1 RES     
   26315 H6        -370.2949   -98.9637   219.2654 H6            1 RES     
   26316 H6        -368.3100  -101.1082   218.8345 H6            1 RES     
   26317 H6        -367.9527  -100.4029   220.3432 H6            1 RES     
   26318 H6        -370.4675  -100.6228   220.9761 H6            1 RES     
   26319 H6        -370.6719  -101.4746   219.3928 H6            1 RES     
   26320 H6        -368.9957  -103.2410   220.2473 H6            1 RES     
   26321 H6        -368.9510  -102.3335   221.8105 H6            1 RES     
   26322 H6        -371.4164  -103.6317   220.4634 H6            1 RES     
   26323 H6        -371.4978  -102.6134   221.9539 H6            1 RES     
   26324 H6        -369.9134  -105.2524   221.7264 H6            1 RES     
   26325 H6        -370.0627  -104.1958   223.1862 H6            1 RES     
   26326 H6        -372.5603  -104.5353   223.1618 H6            1 RES     
   26327 H6        -372.3849  -105.6213   221.7268 H6            1 RES     
   26328 H6        -371.6630  -106.0918   223.3114 H6            1 RES     
   26329 H6        -369.3573   -97.9873   217.2637 H6            1 RES     
   26330 H6        -367.8230   -98.8897   217.3753 H6            1 RES     
   26331 H6        -370.4920  -100.1525   216.4677 H6            1 RES     
   26332 H6        -369.2387   -99.3329   215.5098 H6            1 RES     
   26333 H6        -367.4851  -100.9860   216.3376 H6            1 RES     
   26334 H6        -368.8506  -102.0422   216.8692 H6            1 RES     
   26335 H6        -369.7051  -101.9144   214.3944 H6            1 RES     
   26336 H6        -368.2998  -100.8646   214.0609 H6            1 RES     
   26337 H6        -366.7651  -102.7590   214.8396 H6            1 RES     
   26338 H6        -368.2081  -103.8294   214.7730 H6            1 RES     
   26339 H6        -366.7833  -103.9564   212.7294 H6            1 RES     
   26340 H6        -366.8687  -102.1772   212.5032 H6            1 RES     
   26341 H6        -369.2985  -102.3275   211.9814 H6            1 RES     
   26342 H6        -369.2566  -104.1180   212.2439 H6            1 RES     
   26343 H6        -367.6037  -104.3514   210.3713 H6            1 RES     
   26344 H6        -367.6228  -102.5626   210.1194 H6            1 RES     
   26345 H6        -369.1092  -103.5337   209.8139 H6            1 RES     
   26346 H6        -366.0673   -96.4610   221.8820 H6            1 RES     
   26347 H6        -365.9867   -97.8814   220.8526 H6            1 RES     
   26348 H6        -364.6879   -96.2752   219.9293 H6            1 RES     
   26349 H6        -367.0944   -96.4598   218.0042 H6            1 RES     
   26350 H6        -365.8033   -97.7270   218.3462 H6            1 RES     
   26351 H6        -365.4434   -95.1289   216.8569 H6            1 RES     
   26352 H6        -364.1355   -96.3149   217.3710 H6            1 RES     
   26353 H6        -364.6446   -96.5858   215.0965 H6            1 RES     
   26354 H6        -365.3135   -98.0411   215.9109 H6            1 RES     
   26355 H6        -366.9436   -95.5025   215.1723 H6            1 RES     
   26356 H6        -367.6385   -97.0859   215.6531 H6            1 RES     
   26357 H6        -365.9578   -96.4116   213.1209 H6            1 RES     
   26358 H6        -367.7490   -96.5470   213.1718 H6            1 RES     
   26359 H6        -366.7209   -98.5747   212.2125 H6            1 RES     
   26360 H6        -367.6142   -98.8999   213.7370 H6            1 RES     
   26361 H6        -365.8015   -98.8746   213.7336 H6            1 RES     
   26362 H6        -366.7055   -94.0337   219.2935 H6            1 RES     
   26363 H6        -365.6882   -94.1029   220.7821 H6            1 RES     
   26364 H6        -363.6460   -94.3149   219.7150 H6            1 RES     
   26365 H6        -364.2454   -94.1209   218.0913 H6            1 RES     
   26366 H6        -362.9916   -92.3795   218.9719 H6            1 RES     
   26367 H6        -364.2136   -91.8557   220.1406 H6            1 RES     
   26368 H6        -365.6019   -90.9780   218.2373 H6            1 RES     
   26369 H6        -364.6914   -91.9786   217.0438 H6            1 RES     
   26370 H6        -362.6011   -90.8336   217.4257 H6            1 RES     
   26371 H6        -363.3264   -89.7348   218.6576 H6            1 RES     
   26372 H6        -364.6557   -88.6153   216.9013 H6            1 RES     
   26373 H6        -364.1011   -89.8088   215.6592 H6            1 RES     
   26374 H6        -361.7352   -89.1356   215.9692 H6            1 RES     
   26375 H6        -362.1955   -87.9605   217.2561 H6            1 RES     
   26376 H6        -363.4769   -86.6208   215.5981 H6            1 RES     
   26377 H6        -363.0529   -87.8100   214.2942 H6            1 RES     
   26378 H6        -361.7618   -86.8434   215.0961 H6            1 RES     
   26379 C0        -363.6969  -106.5809   227.8441 C0            1 RES     
   26380 C1        -364.1457  -106.1818   229.0721 C1            1 RES     
   26381 C1        -365.4898  -106.1480   229.1665 C1            1 RES     
   26382 C1        -366.0549  -106.4464   228.0386 C1            1 RES     
   26383 C1        -365.0347  -106.7134   227.0097 C1            1 RES     
   26384 C1        -365.4323  -105.5382   226.1292 C1            1 RES     
   26385 C1        -366.6606  -104.9845   226.3472 C1            1 RES     
   26386 S2        -367.6602  -105.9073   227.5637 S2            1 RES     
   26387 C1        -367.1288  -103.6920   225.6913 C1            1 RES     
   26388 C1        -366.4591  -103.1546   224.5528 C1            1 RES     
   26389 N3        -366.8565  -101.9847   223.9735 N3            1 RES     
   26390 C1        -367.8877  -101.2479   224.4437 C1            1 RES     
   26391 C1        -368.5758  -101.6963   225.5643 C1            1 RES     
   26392 C1        -368.2039  -102.9256   226.1889 C1            1 RES     
   26393 N3        -368.9452  -103.2517   227.2851 N3            1 RES     
   26394 S2        -370.0151  -101.9916   227.3940 S2            1 RES     
   26395 N3        -369.6064  -101.0174   226.1245 N3            1 RES     
   26396 S2        -366.0474  -105.5399   230.6227 S2            1 RES     
   26397 C1        -364.4757  -105.3056   231.2076 C1            1 RES     
   26398 C1        -363.5403  -105.6630   230.2290 C1            1 RES     
   26399 C0        -362.8812  -107.9437   228.0717 C0            1 RES     
   26400 C0        -362.5479  -109.0847   229.1588 C0            1 RES     
   26401 C0        -362.0449  -108.5881   230.5509 C0            1 RES     
   26402 C0        -362.9580  -109.0902   231.6854 C0            1 RES     
   26403 C0        -362.6371  -108.4900   233.0661 C0            1 RES     
   26404 C0        -363.5347  -109.1478   234.1316 C0            1 RES     
   26405 C0        -363.4276  -108.4734   235.5050 C0            1 RES     
   26406 C0        -364.3120  -109.1915   236.5270 C0            1 RES     
   26407 C0        -361.4360  -109.9899   228.4638 C0            1 RES     
   26408 C0        -360.7288  -111.2438   229.0675 C0            1 RES     
   26409 C0        -359.5089  -111.0013   230.0085 C0            1 RES     
   26410 C0        -358.4948  -112.1848   229.9472 C0            1 RES     
   26411 C0        -357.2172  -111.9498   230.7796 C0            1 RES     
   26412 C0        -356.0122  -112.8288   230.3545 C0            1 RES     
   26413 C0        -356.2400  -114.3460   230.4221 C0            1 RES     
   26414 C0        -354.9660  -115.1026   230.0218 C0            1 RES     
   26415 C0        -362.5648  -105.6200   227.2373 C0            1 RES     
   26416 C0        -361.6351  -105.8880   225.9143 C0            1 RES     
   26417 C0        -360.7349  -107.1823   226.0385 C0            1 RES     
   26418 C0        -359.5927  -107.3933   225.0497 C0            1 RES     
   26419 C0        -358.6721  -108.5906   225.3472 C0            1 RES     
   26420 C0        -359.3366  -109.9524   225.0568 C0            1 RES     
   26421 C0        -358.3012  -111.0726   224.8497 C0            1 RES     
   26422 C0        -357.5086  -111.4159   226.0990 C0            1 RES     
   26423 C0        -362.2477  -105.6854   224.4541 C0            1 RES     
   26424 C0        -361.1704  -105.1394   223.4417 C0            1 RES     
   26425 C0        -361.4909  -104.6837   221.9914 C0            1 RES     
   26426 C0        -361.4837  -105.7435   220.8414 C0            1 RES     
   26427 C0        -360.9769  -105.0550   219.5360 C0            1 RES     
   26428 C0        -360.8634  -105.9282   218.2676 C0            1 RES     
   26429 C0        -360.1064  -105.1369   217.1715 C0            1 RES     
   26430 C0        -359.9878  -105.8874   215.8459 C0            1 RES     
   26431 H4        -364.7496  -105.1116   225.4420 H4            1 RES     
   26432 H5        -365.6286  -103.6734   224.1023 H5            1 RES     
   26433 H4        -362.4808  -105.5167   230.3673 H4            1 RES     
   26434 H6        -363.1654  -108.5339   227.1743 H6            1 RES     
   26435 H6        -361.8591  -107.6227   228.0785 H6            1 RES     
   26436 H6        -363.4538  -109.7139   229.3020 H6            1 RES     
   26437 H6        -361.0118  -108.9184   230.7609 H6            1 RES     
   26438 H6        -361.9470  -107.5088   230.5614 H6            1 RES     
   26439 H6        -364.0112  -108.8228   231.4477 H6            1 RES     
   26440 H6        -362.8694  -110.1983   231.7283 H6            1 RES     
   26441 H6        -361.5705  -108.6533   233.3364 H6            1 RES     
   26442 H6        -362.8321  -107.3955   233.0273 H6            1 RES     
   26443 H6        -363.2505  -110.2205   234.2198 H6            1 RES     
   26444 H6        -364.5965  -109.0877   233.8073 H6            1 RES     
   26445 H6        -362.3768  -108.4859   235.8658 H6            1 RES     
   26446 H6        -363.7655  -107.4172   235.4200 H6            1 RES     
   26447 H6        -365.3707  -109.2024   236.1883 H6            1 RES     
   26448 H6        -363.9680  -110.2392   236.6648 H6            1 RES     
   26449 H6        -364.2614  -108.6710   237.5064 H6            1 RES     
   26450 H6        -361.9316  -110.3693   227.5434 H6            1 RES     
   26451 H6        -360.5951  -109.3430   228.1277 H6            1 RES     
   26452 H6        -361.4382  -111.9913   229.4759 H6            1 RES     
   26453 H6        -360.2775  -111.7050   228.1604 H6            1 RES     
   26454 H6        -358.9499  -110.1113   229.6405 H6            1 RES     
   26455 H6        -359.8405  -110.8084   231.0489 H6            1 RES     
   26456 H6        -358.9678  -113.1450   230.2429 H6            1 RES     
   26457 H6        -358.1685  -112.2801   228.9007 H6            1 RES     
   26458 H6        -356.8748  -110.9028   230.6270 H6            1 RES     
   26459 H6        -357.4477  -112.0812   231.8581 H6            1 RES     
   26460 H6        -355.1525  -112.5681   231.0109 H6            1 RES     
   26461 H6        -355.7296  -112.5653   229.3106 H6            1 RES     
   26462 H6        -357.0522  -114.6342   229.7218 H6            1 RES     
   26463 H6        -356.5237  -114.6427   231.4531 H6            1 RES     
   26464 H6        -354.1347  -114.8637   230.7200 H6            1 RES     
   26465 H6        -354.6533  -114.8321   228.9898 H6            1 RES     
   26466 H6        -355.1466  -116.1980   230.0557 H6            1 RES     
   26467 H6        -363.0263  -104.6166   227.1072 H6            1 RES     
   26468 H6        -361.8152  -105.4720   228.0481 H6            1 RES     
   26469 H6        -360.9339  -105.0310   226.0114 H6            1 RES     
   26470 H6        -361.3676  -108.0874   225.9695 H6            1 RES     
   26471 H6        -360.2076  -107.1107   227.0139 H6            1 RES     
   26472 H6        -360.0013  -107.5971   224.0443 H6            1 RES     
   26473 H6        -358.9651  -106.4761   225.0697 H6            1 RES     
   26474 H6        -357.8269  -108.4815   224.6352 H6            1 RES     
   26475 H6        -358.2568  -108.5460   226.3787 H6            1 RES     
   26476 H6        -359.8793  -109.8798   224.0905 H6            1 RES     
   26477 H6        -360.0757  -110.2159   225.8425 H6            1 RES     
   26478 H6        -357.5977  -110.7736   224.0424 H6            1 RES     
   26479 H6        -358.8307  -111.9917   224.5174 H6            1 RES     
   26480 H6        -356.7765  -112.2187   225.8656 H6            1 RES     
   26481 H6        -358.2153  -111.7909   226.8530 H6            1 RES     
   26482 H6        -356.9559  -110.5380   226.4917 H6            1 RES     
   26483 H6        -362.7806  -106.5966   224.1040 H6            1 RES     
   26484 H6        -362.9567  -104.8424   224.4883 H6            1 RES     
   26485 H6        -360.7974  -104.2182   223.9390 H6            1 RES     
   26486 H6        -360.2925  -105.7641   223.3159 H6            1 RES     
   26487 H6        -360.5982  -104.0527   221.7805 H6            1 RES     
   26488 H6        -362.3617  -103.9990   221.9251 H6            1 RES     
   26489 H6        -362.4889  -106.2034   220.7231 H6            1 RES     
   26490 H6        -360.7520  -106.5498   221.0670 H6            1 RES     
   26491 H6        -359.9477  -104.6903   219.7548 H6            1 RES     
   26492 H6        -361.6148  -104.1763   219.2992 H6            1 RES     
   26493 H6        -361.8800  -106.2051   217.9138 H6            1 RES     
   26494 H6        -360.2909  -106.8561   218.4849 H6            1 RES     
   26495 H6        -359.0759  -104.9166   217.5315 H6            1 RES     
   26496 H6        -360.6198  -104.1708   216.9751 H6            1 RES     
   26497 H6        -360.9928  -106.0688   215.4117 H6            1 RES     
   26498 H6        -359.4587  -106.8535   215.9819 H6            1 RES     
   26499 H6        -359.4045  -105.2694   215.1264 H6            1 RES     
   26500 C0        -361.2928  -100.0016   238.0285 C0            1 RES     
   26501 C1        -362.5064   -99.3871   238.1646 C1            1 RES     
   26502 C1        -363.5159  -100.2442   238.4155 C1            1 RES     
   26503 C1        -363.1094  -101.4751   238.4093 C1            1 RES     
   26504 C1        -361.6674  -101.5366   238.1135 C1            1 RES     
   26505 C1        -361.8388  -102.2910   236.8035 C1            1 RES     
   26506 C1        -363.0350  -102.9148   236.5964 C1            1 RES     
   26507 S2        -364.1388  -102.8547   238.0484 S2            1 RES     
   26508 C1        -363.4367  -103.5433   235.2684 C1            1 RES     
   26509 C1        -362.4689  -103.8241   234.2593 C1            1 RES     
   26510 N3        -362.8230  -104.3645   233.0573 N3            1 RES     
   26511 C1        -364.1035  -104.6497   232.7312 C1            1 RES     
   26512 C1        -365.1059  -104.3833   233.6556 C1            1 RES     
   26513 C1        -364.7756  -103.8357   234.9325 C1            1 RES     
   26514 N3        -365.8453  -103.6080   235.7458 N3            1 RES     
   26515 S2        -367.1243  -104.1115   234.8212 S2            1 RES     
   26516 N3        -366.4198  -104.6112   233.4134 N3            1 RES     
   26517 S2        -365.0224   -99.5162   238.4574 S2            1 RES     
   26518 C1        -364.3691   -97.9846   238.1499 C1            1 RES     
   26519 C1        -362.9837   -98.0801   237.9703 C1            1 RES     
   26520 C0        -360.3598   -99.4468   239.2101 C0            1 RES     
   26521 C0        -360.3726   -98.5854   240.5712 C0            1 RES     
   26522 C0        -361.0575   -97.1844   240.4968 C0            1 RES     
   26523 C0        -362.2058   -97.0702   241.5173 C0            1 RES     
   26524 C0        -363.0493   -95.7901   241.3775 C0            1 RES     
   26525 C0        -364.0870   -95.7338   242.5148 C0            1 RES     
   26526 C0        -365.1027   -94.5973   242.3438 C0            1 RES     
   26527 C0        -366.0824   -94.5705   243.5193 C0            1 RES     
   26528 C0        -358.8358   -98.4257   240.9605 C0            1 RES     
   26529 C0        -358.2492   -97.6644   242.1906 C0            1 RES     
   26530 C0        -358.0631   -96.1213   242.0628 C0            1 RES     
   26531 C0        -356.8805   -95.6127   242.9434 C0            1 RES     
   26532 C0        -356.5846   -94.1079   242.7746 C0            1 RES     
   26533 C0        -355.1578   -93.6884   243.2149 C0            1 RES     
   26534 C0        -354.7990   -93.9877   244.6777 C0            1 RES     
   26535 C0        -353.3844   -93.4876   245.0008 C0            1 RES     
   26536 C0        -360.4841   -99.5312   236.7255 C0            1 RES     
   26537 C0        -358.9247   -99.8648   236.3468 C0            1 RES     
   26538 C0        -357.8945   -99.3167   237.4141 C0            1 RES     
   26539 C0        -356.4125   -99.2582   237.0579 C0            1 RES     
   26540 C0        -355.5101   -98.5605   238.0915 C0            1 RES     
   26541 C0        -355.2942   -99.3970   239.3697 C0            1 RES     
   26542 C0        -354.0307   -98.9696   240.1383 C0            1 RES     
   26543 C0        -354.1160   -97.5754   240.7349 C0            1 RES     
   26544 C0        -358.5325  -101.3024   235.7742 C0            1 RES     
   26545 C0        -357.3604  -101.2107   234.7245 C0            1 RES     
   26546 C0        -356.8635  -102.4078   233.8679 C0            1 RES     
   26547 C0        -355.7627  -103.3545   234.4492 C0            1 RES     
   26548 C0        -354.8623  -103.8478   233.2740 C0            1 RES     
   26549 C0        -353.6835  -104.7820   233.6230 C0            1 RES     
   26550 C0        -352.7744  -104.9405   232.3783 C0            1 RES     
   26551 C0        -351.6022  -105.8966   232.5938 C0            1 RES     
   26552 H4        -361.0979  -102.2552   236.0485 H4            1 RES     
   26553 H5        -361.4212  -103.6363   234.4286 H5            1 RES     
   26554 H4        -362.3821   -97.2313   237.6861 H4            1 RES     
   26555 H6        -359.7908  -100.3562   239.4993 H6            1 RES     
   26556 H6        -359.7682   -98.6957   238.7269 H6            1 RES     
   26557 H6        -360.8614   -99.1881   241.3680 H6            1 RES     
   26558 H6        -360.3426   -96.3626   240.6810 H6            1 RES     
   26559 H6        -361.3936   -96.9741   239.4882 H6            1 RES     
   26560 H6        -362.8947   -97.9335   241.3853 H6            1 RES     
   26561 H6        -361.7616   -97.1173   242.5361 H6            1 RES     
   26562 H6        -362.4094   -94.8813   241.4222 H6            1 RES     
   26563 H6        -363.5653   -95.8153   240.3923 H6            1 RES     
   26564 H6        -363.5470   -95.6091   243.4802 H6            1 RES     
   26565 H6        -364.6524   -96.6908   242.5457 H6            1 RES     
   26566 H6        -364.5850   -93.6161   242.2837 H6            1 RES     
   26567 H6        -365.6762   -94.7590   241.4047 H6            1 RES     
   26568 H6        -366.6106   -95.5444   243.6101 H6            1 RES     
   26569 H6        -365.5401   -94.3660   244.4676 H6            1 RES     
   26570 H6        -366.8393   -93.7729   243.3658 H6            1 RES     
   26571 H6        -358.4780   -99.4711   241.0870 H6            1 RES     
   26572 H6        -358.2807   -98.0031   240.0934 H6            1 RES     
   26573 H6        -358.7197   -97.9574   243.1507 H6            1 RES     
   26574 H6        -357.2078   -98.0565   242.2210 H6            1 RES     
   26575 H6        -357.7751   -95.8857   241.0133 H6            1 RES     
   26576 H6        -359.0037   -95.5853   242.3028 H6            1 RES     
   26577 H6        -357.0382   -95.8492   244.0169 H6            1 RES     
   26578 H6        -355.9758   -96.1444   242.6124 H6            1 RES     
   26579 H6        -356.6379   -93.8489   241.6944 H6            1 RES     
   26580 H6        -357.3583   -93.5156   243.3076 H6            1 RES     
   26581 H6        -355.0556   -92.5944   243.0397 H6            1 RES     
   26582 H6        -354.4176   -94.2036   242.5623 H6            1 RES     
   26583 H6        -354.8311   -95.0836   244.8543 H6            1 RES     
   26584 H6        -355.5198   -93.4867   245.3565 H6            1 RES     
   26585 H6        -353.3196   -92.3862   244.8654 H6            1 RES     
   26586 H6        -352.6330   -93.9726   244.3404 H6            1 RES     
   26587 H6        -353.1274   -93.7255   246.0550 H6            1 RES     
   26588 H6        -361.0969   -99.8170   235.8425 H6            1 RES     
   26589 H6        -360.5119   -98.4175   236.7275 H6            1 RES     
   26590 H6        -358.8103   -99.2039   235.4604 H6            1 RES     
   26591 H6        -357.9606   -99.9162   238.3417 H6            1 RES     
   26592 H6        -358.1503   -98.2489   237.5841 H6            1 RES     
   26593 H6        -356.0065  -100.2820   236.9773 H6            1 RES     
   26594 H6        -356.3244   -98.6956   236.1033 H6            1 RES     
   26595 H6        -354.5232   -98.4700   237.5902 H6            1 RES     
   26596 H6        -355.8685   -97.5335   238.3262 H6            1 RES     
   26597 H6        -355.1079  -100.4509   239.0730 H6            1 RES     
   26598 H6        -356.1951   -99.3810   240.0187 H6            1 RES     
   26599 H6        -353.1545   -99.0210   239.4559 H6            1 RES     
   26600 H6        -353.8581   -99.6872   240.9694 H6            1 RES     
   26601 H6        -353.1654   -97.3365   241.2584 H6            1 RES     
   26602 H6        -354.9337   -97.5738   241.4696 H6            1 RES     
   26603 H6        -354.2942   -96.8040   239.9580 H6            1 RES     
   26604 H6        -358.3543  -102.0340   236.5925 H6            1 RES     
   26605 H6        -359.3597  -101.6622   235.1411 H6            1 RES     
   26606 H6        -357.7442  -100.4835   233.9770 H6            1 RES     
   26607 H6        -356.4395  -100.7721   235.0938 H6            1 RES     
   26608 H6        -356.3430  -101.8623   233.0488 H6            1 RES     
   26609 H6        -357.6837  -102.9707   233.3764 H6            1 RES     
   26610 H6        -356.2230  -104.1908   235.0189 H6            1 RES     
   26611 H6        -355.0924  -102.7895   235.1330 H6            1 RES     
   26612 H6        -354.4116  -102.9353   232.8218 H6            1 RES     
   26613 H6        -355.4868  -104.3470   232.5022 H6            1 RES     
   26614 H6        -354.0749  -105.7709   233.9458 H6            1 RES     
   26615 H6        -353.0745  -104.3481   234.4456 H6            1 RES     
   26616 H6        -352.3562  -103.9447   232.1073 H6            1 RES     
   26617 H6        -353.3690  -105.3139   231.5167 H6            1 RES     
   26618 H6        -351.9715  -106.9228   232.7990 H6            1 RES     
   26619 H6        -350.9597  -105.5553   233.4319 H6            1 RES     
   26620 H6        -350.9815  -105.9286   231.6700 H6            1 RES     
   26621 C0        -368.2817   -90.2640   235.0081 C0            1 RES     
   26622 C1        -369.4397   -90.9283   234.7142 C1            1 RES     
   26623 C1        -369.9829   -91.5545   235.7770 C1            1 RES     
   26624 C1        -369.2412   -91.4324   236.8331 C1            1 RES     
   26625 C1        -368.0295   -90.6546   236.5206 C1            1 RES     
   26626 C1        -367.0682   -91.8003   236.7989 C1            1 RES     
   26627 C1        -367.5470   -92.8523   237.5248 C1            1 RES     
   26628 S2        -369.2306   -92.5733   238.1715 S2            1 RES     
   26629 C1        -366.7819   -94.1543   237.7237 C1            1 RES     
   26630 C1        -365.3836   -94.2395   237.4572 C1            1 RES     
   26631 N3        -364.6950   -95.4078   237.6092 N3            1 RES     
   26632 C1        -365.2847   -96.5603   237.9982 C1            1 RES     
   26633 C1        -366.6500   -96.5611   238.2554 C1            1 RES     
   26634 C1        -367.4039   -95.3550   238.1268 C1            1 RES     
   26635 N3        -368.7338   -95.4862   238.3942 N3            1 RES     
   26636 S2        -368.8752   -97.0913   238.7790 S2            1 RES     
   26637 N3        -367.3357   -97.6697   238.6265 N3            1 RES     
   26638 S2        -371.3298   -92.4741   235.4008 S2            1 RES     
   26639 C1        -371.2495   -92.0498   233.7634 C1            1 RES     
   26640 C1        -370.1361   -91.2327   233.5325 C1            1 RES     
   26641 C0        -368.5586   -88.7085   234.7283 C0            1 RES     
   26642 C0        -369.7194   -87.6401   234.4032 C0            1 RES     
   26643 C0        -370.6691   -87.9906   233.2145 C0            1 RES     
   26644 C0        -372.1391   -88.0429   233.6720 C0            1 RES     
   26645 C0        -373.1149   -88.5646   232.6018 C0            1 RES     
   26646 C0        -374.5579   -88.4645   233.1320 C0            1 RES     
   26647 C0        -375.5819   -89.1456   232.2154 C0            1 RES     
   26648 C0        -376.9969   -88.9818   232.7751 C0            1 RES     
   26649 C0        -368.9431   -86.2813   234.1038 C0            1 RES     
   26650 C0        -369.5679   -84.9047   233.7148 C0            1 RES     
   26651 C0        -369.9285   -84.6738   232.2151 C0            1 RES     
   26652 C0        -369.8295   -83.1660   231.8284 C0            1 RES     
   26653 C0        -370.0741   -82.8932   230.3297 C0            1 RES     
   26654 C0        -369.5017   -81.5415   229.8290 C0            1 RES     
   26655 C0        -370.0372   -80.2895   230.5387 C0            1 RES     
   26656 C0        -369.4312   -79.0195   229.9259 C0            1 RES     
   26657 C0        -367.0913   -90.5743   233.9787 C0            1 RES     
   26658 C0        -365.6465   -89.8085   233.8666 C0            1 RES     
   26659 C0        -365.7829   -88.2681   233.5357 C0            1 RES     
   26660 C0        -364.5505   -87.4907   233.0846 C0            1 RES     
   26661 C0        -364.8108   -86.0439   232.6281 C0            1 RES     
   26662 C0        -365.1350   -85.0893   233.7960 C0            1 RES     
   26663 C0        -364.8808   -83.6156   233.4307 C0            1 RES     
   26664 C0        -365.8202   -83.0750   232.3667 C0            1 RES     
   26665 C0        -364.4913   -90.1255   234.9218 C0            1 RES     
   26666 C0        -363.0627   -90.0518   234.2603 C0            1 RES     
   26667 C0        -361.7490   -90.4685   234.9774 C0            1 RES     
   26668 C0        -360.9869   -89.4129   235.8438 C0            1 RES     
   26669 C0        -359.4555   -89.6896   235.7286 C0            1 RES     
   26670 C0        -358.5013   -88.7438   236.4896 C0            1 RES     
   26671 C0        -357.0446   -89.0220   236.0406 C0            1 RES     
   26672 C0        -356.0050   -88.1787   236.7773 C0            1 RES     
   26673 H4        -366.1008   -91.8217   236.3699 H4            1 RES     
   26674 H5        -364.8245   -93.3717   237.1474 H5            1 RES     
   26675 H4        -369.8545   -90.9131   232.5418 H4            1 RES     
   26676 H6        -368.0029   -88.2234   235.5591 H6            1 RES     
   26677 H6        -368.1259   -88.5497   233.7611 H6            1 RES     
   26678 H6        -370.3272   -87.4859   235.3218 H6            1 RES     
   26679 H6        -370.5854   -87.2626   232.3879 H6            1 RES     
   26680 H6        -370.3632   -88.9147   232.7380 H6            1 RES     
   26681 H6        -372.2213   -88.7209   234.5499 H6            1 RES     
   26682 H6        -372.4358   -87.0164   233.9816 H6            1 RES     
   26683 H6        -373.0303   -87.9769   231.6612 H6            1 RES     
   26684 H6        -372.8623   -89.6259   232.3836 H6            1 RES     
   26685 H6        -374.8183   -87.3884   233.2473 H6            1 RES     
   26686 H6        -374.6190   -88.9530   234.1290 H6            1 RES     
   26687 H6        -375.5451   -88.7077   231.1949 H6            1 RES     
   26688 H6        -375.3474   -90.2307   232.1494 H6            1 RES     
   26689 H6        -377.0626   -89.4041   233.8013 H6            1 RES     
   26690 H6        -377.2747   -87.9064   232.8106 H6            1 RES     
   26691 H6        -377.7259   -89.5141   232.1285 H6            1 RES     
   26692 H6        -368.3851   -86.0751   235.0435 H6            1 RES     
   26693 H6        -368.1795   -86.4623   233.3147 H6            1 RES     
   26694 H6        -370.3772   -84.5828   234.4006 H6            1 RES     
   26695 H6        -368.7143   -84.2127   233.8928 H6            1 RES     
   26696 H6        -369.1708   -85.1927   231.5853 H6            1 RES     
   26697 H6        -370.9306   -85.0854   231.9783 H6            1 RES     
   26698 H6        -370.5104   -82.5401   232.4430 H6            1 RES     
   26699 H6        -368.7983   -82.8434   232.0368 H6            1 RES     
   26700 H6        -369.5447   -83.6667   229.7313 H6            1 RES     
   26701 H6        -371.1599   -82.9739   230.1103 H6            1 RES     
   26702 H6        -369.7263   -81.4586   228.7424 H6            1 RES     
   26703 H6        -368.3945   -81.5595   229.9426 H6            1 RES     
   26704 H6        -369.7638   -80.3232   231.6145 H6            1 RES     
   26705 H6        -371.1418   -80.2412   230.4435 H6            1 RES     
   26706 H6        -369.7090   -78.9332   228.8530 H6            1 RES     
   26707 H6        -368.3225   -79.0316   230.0069 H6            1 RES     
   26708 H6        -369.8101   -78.1211   230.4581 H6            1 RES     
   26709 H6        -366.8729   -91.6622   234.0534 H6            1 RES     
   26710 H6        -367.5226   -90.4525   232.9587 H6            1 RES     
   26711 H6        -365.2669   -90.2779   232.9332 H6            1 RES     
   26712 H6        -366.1766   -87.7284   234.4177 H6            1 RES     
   26713 H6        -366.4597   -88.1900   232.6580 H6            1 RES     
   26714 H6        -363.8400   -87.3960   233.9245 H6            1 RES     
   26715 H6        -364.1113   -88.0391   232.2233 H6            1 RES     
   26716 H6        -363.8473   -85.7077   232.1898 H6            1 RES     
   26717 H6        -365.5839   -85.9956   231.8291 H6            1 RES     
   26718 H6        -364.4343   -85.3040   234.6305 H6            1 RES     
   26719 H6        -366.1682   -85.2475   234.1708 H6            1 RES     
   26720 H6        -363.8313   -83.5028   233.0817 H6            1 RES     
   26721 H6        -365.0050   -82.9944   234.3441 H6            1 RES     
   26722 H6        -365.5649   -82.0156   232.1492 H6            1 RES     
   26723 H6        -366.8426   -83.1164   232.7685 H6            1 RES     
   26724 H6        -365.7530   -83.6546   231.4233 H6            1 RES     
   26725 H6        -364.5987   -89.5113   235.8426 H6            1 RES     
   26726 H6        -364.5487   -91.1928   235.1901 H6            1 RES     
   26727 H6        -363.1409   -90.7581   233.4059 H6            1 RES     
   26728 H6        -362.8072   -89.0977   233.8117 H6            1 RES     
   26729 H6        -361.0843   -90.6240   234.0978 H6            1 RES     
   26730 H6        -361.8133   -91.4557   235.4800 H6            1 RES     
   26731 H6        -361.3495   -89.4299   236.8946 H6            1 RES     
   26732 H6        -361.1461   -88.3920   235.4329 H6            1 RES     
   26733 H6        -359.1999   -89.5859   234.6496 H6            1 RES     
   26734 H6        -359.2348   -90.7332   236.0402 H6            1 RES     
   26735 H6        -358.6079   -88.9083   237.5836 H6            1 RES     
   26736 H6        -358.7399   -87.6829   236.2584 H6            1 RES     
   26737 H6        -356.9534   -88.8014   234.9530 H6            1 RES     
   26738 H6        -356.7943   -90.0931   236.2001 H6            1 RES     
   26739 H6        -356.0104   -88.4162   237.8612 H6            1 RES     
   26740 H6        -356.1956   -87.0952   236.6304 H6            1 RES     
   26741 H6        -354.9932   -88.4117   236.3752 H6            1 RES     
   26742 C0        -374.9047   -96.0224   226.3038 C0            1 RES     
   26743 C1        -375.2888   -97.1149   227.0302 C1            1 RES     
   26744 C1        -376.0889   -96.8117   228.0716 C1            1 RES     
   26745 C1        -376.2630   -95.5320   228.1829 C1            1 RES     
   26746 C1        -375.5115   -94.8200   227.1344 C1            1 RES     
   26747 C1        -374.5879   -94.1014   228.1064 C1            1 RES     
   26748 C1        -374.9795   -94.0471   229.4128 C1            1 RES     
   26749 S2        -376.6552   -94.7145   229.6899 S2            1 RES     
   26750 C1        -374.0867   -93.5400   230.5378 C1            1 RES     
   26751 C1        -372.9148   -92.7746   230.2654 C1            1 RES     
   26752 N3        -372.0960   -92.3370   231.2656 N3            1 RES     
   26753 C1        -372.3215   -92.6119   232.5698 C1            1 RES     
   26754 C1        -373.4330   -93.3719   232.9122 C1            1 RES     
   26755 C1        -374.3256   -93.8331   231.8972 C1            1 RES     
   26756 N3        -375.3705   -94.5779   232.3567 N3            1 RES     
   26757 S2        -375.1133   -94.6026   233.9931 S2            1 RES     
   26758 N3        -373.7308   -93.7202   234.1876 N3            1 RES     
   26759 S2        -376.4604   -98.1253   229.0400 S2            1 RES     
   26760 C1        -375.5571   -99.1826   228.0739 C1            1 RES     
   26761 C1        -374.9388   -98.4756   227.0354 C1            1 RES     
   26762 C0        -375.5002   -96.2180   224.8268 C0            1 RES     
   26763 C0        -376.5060   -97.1175   223.9471 C0            1 RES     
   26764 C0        -376.3118   -98.6639   224.0395 C0            1 RES     
   26765 C0        -377.6002   -99.3602   224.5173 C0            1 RES     
   26766 C0        -377.4336  -100.8616   224.8128 C0            1 RES     
   26767 C0        -378.8039  -101.4684   225.1702 C0            1 RES     
   26768 C0        -378.7065  -102.9138   225.6739 C0            1 RES     
   26769 C0        -380.0987  -103.4723   225.9775 C0            1 RES     
   26770 C0        -376.2811   -96.6241   222.4489 C0            1 RES     
   26771 C0        -376.9869   -97.1603   221.1639 C0            1 RES     
   26772 C0        -376.4048   -98.4483   220.5048 C0            1 RES     
   26773 C0        -376.6545   -98.4663   218.9654 C0            1 RES     
   26774 C0        -376.0074   -99.6684   218.2466 C0            1 RES     
   26775 C0        -375.7988   -99.4602   216.7239 C0            1 RES     
   26776 C0        -377.0698   -99.1678   215.9131 C0            1 RES     
   26777 C0        -376.7390   -99.0264   214.4210 C0            1 RES     
   26778 C0        -373.3274   -95.9720   226.0161 C0            1 RES     
   26779 C0        -372.5315   -94.9578   225.0040 C0            1 RES     
   26780 C0        -372.9920   -95.0947   223.4973 C0            1 RES     
   26781 C0        -372.1410   -94.4671   222.3980 C0            1 RES     
   26782 C0        -372.5765   -94.7907   220.9574 C0            1 RES     
   26783 C0        -373.8710   -94.0633   220.5383 C0            1 RES     
   26784 C0        -374.0128   -93.9631   219.0087 C0            1 RES     
   26785 C0        -374.2164   -95.3021   218.3210 C0            1 RES     
   26786 C0        -372.2542   -93.4481   225.4426 C0            1 RES     
   26787 C0        -370.8776   -92.9230   224.8829 C0            1 RES     
   26788 C0        -370.2454   -91.5571   225.2681 C0            1 RES     
   26789 C0        -370.6333   -90.2814   224.4508 C0            1 RES     
   26790 C0        -369.3905   -89.3402   224.3817 C0            1 RES     
   26791 C0        -369.5389   -88.0206   223.5938 C0            1 RES     
   26792 C0        -368.1432   -87.3690   223.4258 C0            1 RES     
   26793 C0        -368.1793   -86.0206   222.7081 C0            1 RES     
   26794 H4        -373.6410   -93.7413   227.7995 H4            1 RES     
   26795 H5        -372.6543   -92.5002   229.2562 H5            1 RES     
   26796 H4        -374.2526   -98.9465   226.3496 H4            1 RES     
   26797 H6        -375.8001   -95.1817   224.5611 H6            1 RES     
   26798 H6        -374.6636   -96.5879   224.2691 H6            1 RES     
   26799 H6        -377.5507   -96.8638   224.2324 H6            1 RES     
   26800 H6        -376.0151   -99.1035   223.0705 H6            1 RES     
   26801 H6        -375.4652   -98.9077   224.6707 H6            1 RES     
   26802 H6        -377.9457   -98.8767   225.4576 H6            1 RES     
   26803 H6        -378.3758   -99.2160   223.7330 H6            1 RES     
   26804 H6        -377.0147  -101.3993   223.9338 H6            1 RES     
   26805 H6        -376.7321  -100.9755   225.6686 H6            1 RES     
   26806 H6        -379.4533  -101.4313   224.2668 H6            1 RES     
   26807 H6        -379.2777  -100.8618   225.9727 H6            1 RES     
   26808 H6        -378.2167  -103.5602   224.9145 H6            1 RES     
   26809 H6        -378.1020  -102.9348   226.6072 H6            1 RES     
   26810 H6        -380.6179  -102.8397   226.7299 H6            1 RES     
   26811 H6        -380.7112  -103.5040   225.0508 H6            1 RES     
   26812 H6        -380.0156  -104.5029   226.3819 H6            1 RES     
   26813 H6        -376.5433   -95.5437   222.4770 H6            1 RES     
   26814 H6        -375.1971   -96.6813   222.2037 H6            1 RES     
   26815 H6        -378.0915   -97.1905   221.2525 H6            1 RES     
   26816 H6        -376.7547   -96.3571   220.4289 H6            1 RES     
   26817 H6        -375.2980   -98.4384   220.6265 H6            1 RES     
   26818 H6        -376.8081   -99.3607   220.9891 H6            1 RES     
   26819 H6        -377.7379   -98.4206   218.7258 H6            1 RES     
   26820 H6        -376.1806   -97.5652   218.5480 H6            1 RES     
   26821 H6        -374.9854   -99.8258   218.6559 H6            1 RES     
   26822 H6        -376.6019  -100.5848   218.4475 H6            1 RES     
   26823 H6        -375.3204  -100.3786   216.3173 H6            1 RES     
   26824 H6        -375.0882   -98.6167   216.5736 H6            1 RES     
   26825 H6        -377.5258   -98.2170   216.2616 H6            1 RES     
   26826 H6        -377.8011   -99.9925   216.0412 H6            1 RES     
   26827 H6        -376.3073   -99.9715   214.0259 H6            1 RES     
   26828 H6        -376.0094   -98.2043   214.2539 H6            1 RES     
   26829 H6        -377.6612   -98.7966   213.8462 H6            1 RES     
   26830 H6        -372.8195   -95.9042   227.0031 H6            1 RES     
   26831 H6        -373.0485   -96.9810   225.6350 H6            1 RES     
   26832 H6        -371.5210   -95.4191   225.0463 H6            1 RES     
   26833 H6        -374.0067   -94.6709   223.3753 H6            1 RES     
   26834 H6        -372.9557   -96.1774   223.2506 H6            1 RES     
   26835 H6        -372.1942   -93.3663   222.4662 H6            1 RES     
   26836 H6        -371.1039   -94.8458   222.5266 H6            1 RES     
   26837 H6        -371.7585   -94.3951   220.3188 H6            1 RES     
   26838 H6        -372.6448   -95.8876   220.7831 H6            1 RES     
   26839 H6        -373.8137   -93.0120   220.8915 H6            1 RES     
   26840 H6        -374.7643   -94.5300   221.0042 H6            1 RES     
   26841 H6        -373.1071   -93.4726   218.5903 H6            1 RES     
   26842 H6        -374.8885   -93.3207   218.7722 H6            1 RES     
   26843 H6        -374.2953   -95.1478   217.2234 H6            1 RES     
   26844 H6        -375.1619   -95.7274   218.6867 H6            1 RES     
   26845 H6        -373.3774   -96.0001   218.5195 H6            1 RES     
   26846 H6        -373.1201   -92.7895   225.2120 H6            1 RES     
   26847 H6        -372.0652   -93.4304   226.5282 H6            1 RES     
   26848 H6        -370.1480   -93.6740   225.2555 H6            1 RES     
   26849 H6        -370.7759   -92.9465   223.8031 H6            1 RES     
   26850 H6        -369.1845   -91.7438   224.9868 H6            1 RES     
   26851 H6        -370.2345   -91.3674   226.3614 H6            1 RES     
   26852 H6        -371.5244   -89.7857   224.8935 H6            1 RES     
   26853 H6        -370.8691   -90.5560   223.3995 H6            1 RES     
   26854 H6        -368.5888   -89.9191   223.8695 H6            1 RES     
   26855 H6        -369.0424   -89.0967   225.4086 H6            1 RES     
   26856 H6        -370.2234   -87.3359   224.1396 H6            1 RES     
   26857 H6        -369.9551   -88.2172   222.5819 H6            1 RES     
   26858 H6        -367.4942   -88.0529   222.8333 H6            1 RES     
   26859 H6        -367.6711   -87.2167   224.4204 H6            1 RES     
   26860 H6        -368.7599   -85.2822   223.2989 H6            1 RES     
   26861 H6        -368.6220   -86.1210   221.6953 H6            1 RES     
   26862 H6        -367.1398   -85.6372   222.5972 H6            1 RES     
   26863 C0        -372.0739  -107.5175   229.8584 C0            1 RES     
   26864 C1        -372.3847  -107.4025   231.1847 C1            1 RES     
   26865 C1        -373.6940  -107.1756   231.4106 C1            1 RES     
   26866 C1        -374.3557  -107.0563   230.3023 C1            1 RES     
   26867 C1        -373.4504  -107.1946   229.1481 C1            1 RES     
   26868 C1        -373.6658  -105.7743   228.6473 C1            1 RES     
   26869 C1        -374.7602  -105.1077   229.1172 C1            1 RES     
   26870 S2        -375.8550  -106.1516   230.1381 S2            1 RES     
   26871 C1        -375.0130  -103.6263   228.8695 C1            1 RES     
   26872 C1        -374.3093  -102.9148   227.8535 C1            1 RES     
   26873 N3        -374.5115  -101.5821   227.6407 N3            1 RES     
   26874 C1        -375.3673  -100.8436   228.3822 C1            1 RES     
   26875 C1        -376.0735  -101.4628   229.4058 C1            1 RES     
   26876 C1        -375.9051  -102.8600   229.6491 C1            1 RES     
   26877 N3        -376.6423  -103.3479   230.6864 N3            1 RES     
   26878 S2        -377.4565  -102.0081   231.2215 S2            1 RES     
   26879 N3        -376.9350  -100.8039   230.2186 N3            1 RES     
   26880 S2        -374.0628  -106.9072   233.0210 S2            1 RES     
   26881 C1        -372.4495  -107.1037   233.4963 C1            1 RES     
   26882 C1        -371.6416  -107.3276   232.3747 C1            1 RES     
   26883 C0        -371.5126  -109.0052   229.6437 C0            1 RES     
   26884 C0        -371.3445  -110.4392   230.3579 C0            1 RES     
   26885 C0        -370.6952  -110.4330   231.7777 C0            1 RES     
   26886 C0        -371.6316  -111.0700   232.8219 C0            1 RES     
   26887 C0        -371.1427  -110.9327   234.2751 C0            1 RES     
   26888 C0        -372.0956  -111.7009   235.2108 C0            1 RES     
   26889 C0        -371.8033  -111.4560   236.6965 C0            1 RES     
   26890 C0        -372.7564  -112.2715   237.5734 C0            1 RES     
   26891 C0        -370.4509  -111.2889   229.3489 C0            1 RES     
   26892 C0        -369.9587  -112.7587   229.5340 C0            1 RES     
   26893 C0        -368.6730  -112.9873   230.3866 C0            1 RES     
   26894 C0        -367.8973  -114.2584   229.9226 C0            1 RES     
   26895 C0        -366.5612  -114.4738   230.6635 C0            1 RES     
   26896 C0        -365.5589  -115.3880   229.9118 C0            1 RES     
   26897 C0        -366.0578  -116.8067   229.6010 C0            1 RES     
   26898 C0        -364.9642  -117.6230   228.8987 C0            1 RES     
   26899 C0        -370.8139  -106.6266   229.4206 C0            1 RES     
   26900 C0        -370.0113  -106.6703   227.9922 C0            1 RES     
   26901 C0        -369.3591  -108.0785   227.6880 C0            1 RES     
   26902 C0        -368.3220  -108.1949   226.5757 C0            1 RES     
   26903 C0        -367.6241  -109.5621   226.4615 C0            1 RES     
   26904 C0        -368.5398  -110.6637   225.8886 C0            1 RES     
   26905 C0        -367.7383  -111.8383   225.2991 C0            1 RES     
   26906 C0        -366.9653  -112.6364   226.3347 C0            1 RES     
   26907 C0        -370.6431  -105.9773   226.7003 C0            1 RES     
   26908 C0        -369.5317  -105.3591   225.7693 C0            1 RES     
   26909 C0        -369.8298  -104.4769   224.5257 C0            1 RES     
   26910 C0        -370.0702  -105.1670   223.1430 C0            1 RES     
   26911 C0        -369.5065  -104.2397   222.0216 C0            1 RES     
   26912 C0        -369.6138  -104.7380   220.5641 C0            1 RES     
   26913 C0        -368.7758  -103.8118   219.6471 C0            1 RES     
   26914 C0        -368.8583  -104.1789   218.1662 C0            1 RES     
   26915 H4        -372.9488  -105.2937   228.0347 H4            1 RES     
   26916 H5        -373.6098  -103.4191   227.2069 H5            1 RES     
   26917 H4        -370.5681  -107.4009   232.4463 H4            1 RES     
   26918 H6        -371.9414  -109.2717   228.6540 H6            1 RES     
   26919 H6        -370.4497  -108.8708   229.6381 H6            1 RES     
   26920 H6        -372.3429  -110.9259   230.4160 H6            1 RES     
   26921 H6        -369.7318  -110.9732   231.7959 H6            1 RES     
   26922 H6        -370.4006  -109.4293   232.0611 H6            1 RES     
   26923 H6        -372.6277  -110.5785   232.7627 H6            1 RES     
   26924 H6        -371.7460  -112.1463   232.5648 H6            1 RES     
   26925 H6        -370.1129  -111.3366   234.3917 H6            1 RES     
   26926 H6        -371.1351  -109.8529   234.5426 H6            1 RES     
   26927 H6        -372.0094  -112.7881   234.9881 H6            1 RES     
   26928 H6        -373.1422  -111.3806   235.0149 H6            1 RES     
   26929 H6        -370.7572  -111.7394   236.9409 H6            1 RES     
   26930 H6        -371.9452  -110.3764   236.9230 H6            1 RES     
   26931 H6        -373.8136  -112.0151   237.3448 H6            1 RES     
   26932 H6        -372.6045  -113.3585   237.3991 H6            1 RES     
   26933 H6        -372.5660  -112.0552   238.6456 H6            1 RES     
   26934 H6        -371.0497  -111.3146   228.4120 H6            1 RES     
   26935 H6        -369.5221  -110.7218   229.1162 H6            1 RES     
   26936 H6        -370.7737  -113.4625   229.7974 H6            1 RES     
   26937 H6        -369.6421  -113.0210   228.4995 H6            1 RES     
   26938 H6        -367.9778  -112.1349   230.2135 H6            1 RES     
   26939 H6        -368.9152  -113.0354   231.4677 H6            1 RES     
   26940 H6        -368.5243  -115.1716   229.9998 H6            1 RES     
   26941 H6        -367.6426  -114.1153   228.8618 H6            1 RES     
   26942 H6        -366.0399  -113.4961   230.7587 H6            1 RES     
   26943 H6        -366.7619  -114.8563   231.6868 H6            1 RES     
   26944 H6        -364.6366  -115.4622   230.5297 H6            1 RES     
   26945 H6        -365.2812  -114.8984   228.9514 H6            1 RES     
   26946 H6        -366.9407  -116.7544   228.9294 H6            1 RES     
   26947 H6        -366.3433  -117.3240   230.5404 H6            1 RES     
   26948 H6        -364.0719  -117.7246   229.5537 H6            1 RES     
   26949 H6        -364.6551  -117.1350   227.9488 H6            1 RES     
   26950 H6        -365.3410  -118.6406   228.6615 H6            1 RES     
   26951 H6        -371.0890  -105.5643   229.6016 H6            1 RES     
   26952 H6        -370.0134  -106.8318   230.1677 H6            1 RES     
   26953 H6        -369.1611  -106.0000   228.2438 H6            1 RES     
   26954 H6        -370.1497  -108.8133   227.4445 H6            1 RES     
   26955 H6        -368.7833  -108.3648   228.5941 H6            1 RES     
   26956 H6        -368.8070  -108.0451   225.5950 H6            1 RES     
   26957 H6        -367.5365  -107.4343   226.7758 H6            1 RES     
   26958 H6        -366.8069  -109.4022   225.7266 H6            1 RES     
   26959 H6        -367.1604  -109.8709   227.4248 H6            1 RES     
   26960 H6        -369.1040  -110.2408   225.0305 H6            1 RES     
   26961 H6        -369.2776  -111.0075   226.6438 H6            1 RES     
   26962 H6        -367.0299  -111.4492   224.5357 H6            1 RES     
   26963 H6        -368.4422  -112.5311   224.7891 H6            1 RES     
   26964 H6        -366.4046  -113.4533   225.8316 H6            1 RES     
   26965 H6        -367.6933  -113.0825   227.0272 H6            1 RES     
   26966 H6        -366.2434  -112.0031   226.8897 H6            1 RES     
   26967 H6        -371.3497  -106.6571   226.1757 H6            1 RES     
   26968 H6        -371.1830  -105.0714   227.0204 H6            1 RES     
   26969 H6        -368.9734  -104.6839   226.4530 H6            1 RES     
   26970 H6        -368.7901  -106.0608   225.4024 H6            1 RES     
   26971 H6        -368.8471  -103.9678   224.4043 H6            1 RES     
   26972 H6        -370.5622  -103.6671   224.7231 H6            1 RES     
   26973 H6        -371.1471  -105.4052   223.0036 H6            1 RES     
   26974 H6        -369.4893  -106.1130   223.0799 H6            1 RES     
   26975 H6        -368.4188  -104.1232   222.2305 H6            1 RES     
   26976 H6        -369.9825  -103.2375   222.0841 H6            1 RES     
   26977 H6        -370.6791  -104.7363   220.2474 H6            1 RES     
   26978 H6        -369.2119  -105.7707   220.4761 H6            1 RES     
   26979 H6        -367.7069  -103.8711   219.9536 H6            1 RES     
   26980 H6        -369.1117  -102.7583   219.7596 H6            1 RES     
   26981 H6        -369.8985  -104.0667   217.7962 H6            1 RES     
   26982 H6        -368.5098  -105.2185   217.9943 H6            1 RES     
   26983 H6        -368.2053  -103.4918   217.5820 H6            1 RES     
   26984 C0        -368.0359  -104.4713   241.1369 C0            1 RES     
   26985 C1        -369.1085  -103.7271   241.5426 C1            1 RES     
   26986 C1        -370.2455  -104.4423   241.6543 C1            1 RES     
   26987 C1        -370.0726  -105.6737   241.2879 C1            1 RES     
   26988 C1        -368.6815  -105.8876   240.8520 C1            1 RES     
   26989 C1        -369.0487  -106.2150   239.4124 C1            1 RES     
   26990 C1        -370.3473  -106.5529   239.1627 C1            1 RES     
   26991 S2        -371.3532  -106.7129   240.6770 S2            1 RES     
   26992 C1        -370.9184  -106.7182   237.7604 C1            1 RES     
   26993 C1        -370.0662  -106.8665   236.6266 C1            1 RES     
   26994 N3        -370.5685  -106.9907   235.3638 N3            1 RES     
   26995 C1        -371.8933  -106.9613   235.0964 C1            1 RES     
   26996 C1        -372.7860  -106.7977   236.1483 C1            1 RES     
   26997 C1        -372.3022  -106.6833   237.4872 C1            1 RES     
   26998 N3        -373.2733  -106.5150   238.4286 N3            1 RES     
   26999 S2        -374.6643  -106.5285   237.5289 S2            1 RES     
   27000 N3        -374.1291  -106.7315   235.9797 N3            1 RES     
   27001 S2        -371.5893  -103.5166   242.0267 S2            1 RES     
   27002 C1        -370.6809  -102.0883   242.0707 C1            1 RES     
   27003 C1        -369.3463  -102.3570   241.7429 C1            1 RES     
   27004 C0        -366.9635  -104.4229   242.3293 C0            1 RES     
   27005 C0        -366.7551  -103.9779   243.8633 C0            1 RES     
   27006 C0        -367.1739  -102.5175   244.2231 C0            1 RES     
   27007 C0        -368.2335  -102.5006   245.3411 C0            1 RES     
   27008 C0        -368.8332  -101.1109   245.6212 C0            1 RES     
   27009 C0        -369.7894  -101.1990   246.8260 C0            1 RES     
   27010 C0        -370.5861   -99.9085   247.0547 C0            1 RES     
   27011 C0        -371.4889  -100.0446   248.2830 C0            1 RES     
   27012 C0        -365.1988  -104.1857   244.1345 C0            1 RES     
   27013 C0        -364.4264  -103.8981   245.4602 C0            1 RES     
   27014 C0        -363.9663  -102.4314   245.7238 C0            1 RES     
   27015 C0        -362.6711  -102.3852   246.5916 C0            1 RES     
   27016 C0        -362.1121  -100.9616   246.7954 C0            1 RES     
   27017 C0        -360.6139  -100.9191   247.1939 C0            1 RES     
   27018 C0        -360.2489  -101.6629   248.4869 C0            1 RES     
   27019 C0        -358.7532  -101.5099   248.7952 C0            1 RES     
   27020 C0        -367.2157  -103.8011   239.9323 C0            1 RES     
   27021 C0        -365.7631  -104.2693   239.3346 C0            1 RES     
   27022 C0        -364.6016  -104.2119   240.4064 C0            1 RES     
   27023 C0        -363.1522  -104.3021   239.9401 C0            1 RES     
   27024 C0        -362.0903  -104.0727   241.0306 C0            1 RES     
   27025 C0        -361.9729  -105.2513   242.0192 C0            1 RES     
   27026 C0        -360.6183  -105.2646   242.7505 C0            1 RES     
   27027 C0        -360.4187  -104.0931   243.6965 C0            1 RES     
   27028 C0        -365.6682  -105.5389   238.3714 C0            1 RES     
   27029 C0        -364.5489  -105.3566   237.2770 C0            1 RES     
   27030 C0        -364.3202  -106.3375   236.0941 C0            1 RES     
   27031 C0        -363.3862  -107.5748   236.3011 C0            1 RES     
   27032 C0        -362.6468  -107.8677   234.9584 C0            1 RES     
   27033 C0        -361.6447  -109.0422   234.9384 C0            1 RES     
   27034 C0        -360.8385  -109.0002   233.6158 C0            1 RES     
   27035 C0        -359.8531  -110.1578   233.4623 C0            1 RES     
   27036 H4        -368.3494  -106.0957   238.6269 H4            1 RES     
   27037 H5        -368.9951  -106.9069   236.7398 H5            1 RES     
   27038 H4        -368.6130  -101.5737   241.6355 H4            1 RES     
   27039 H6        -366.5582  -105.4573   242.3156 H6            1 RES     
   27040 H6        -366.2669  -103.6758   242.0061 H6            1 RES     
   27041 H6        -367.3089  -104.6872   244.5170 H6            1 RES     
   27042 H6        -366.3126  -101.9068   244.5478 H6            1 RES     
   27043 H6        -367.5119  -101.9864   243.3408 H6            1 RES     
   27044 H6        -369.0744  -103.1693   245.0532 H6            1 RES     
   27045 H6        -367.7589  -102.8976   246.2656 H6            1 RES     
   27046 H6        -368.0361  -100.3671   245.8419 H6            1 RES     
   27047 H6        -369.3900  -100.7798   244.7168 H6            1 RES     
   27048 H6        -369.1917  -101.4343   247.7351 H6            1 RES     
   27049 H6        -370.5187  -102.0214   246.6584 H6            1 RES     
   27050 H6        -369.9004   -99.0473   247.2051 H6            1 RES     
   27051 H6        -371.2222   -99.7099   246.1643 H6            1 RES     
   27052 H6        -372.1820  -100.9056   248.1650 H6            1 RES     
   27053 H6        -370.8751  -100.2000   249.1964 H6            1 RES     
   27054 H6        -372.0928   -99.1224   248.4155 H6            1 RES     
   27055 H6        -365.0335  -105.2697   243.9488 H6            1 RES     
   27056 H6        -364.6162  -103.6386   243.3601 H6            1 RES     
   27057 H6        -364.8978  -104.3617   246.3500 H6            1 RES     
   27058 H6        -363.4743  -104.4489   245.2889 H6            1 RES     
   27059 H6        -363.6887  -101.9676   244.7503 H6            1 RES     
   27060 H6        -364.7804  -101.8349   246.1831 H6            1 RES     
   27061 H6        -362.8198  -102.8778   247.5756 H6            1 RES     
   27062 H6        -361.8956  -102.9468   246.0494 H6            1 RES     
   27063 H6        -362.1668  -100.4112   245.8307 H6            1 RES     
   27064 H6        -362.7386  -100.4195   247.5352 H6            1 RES     
   27065 H6        -360.3208   -99.8513   247.3024 H6            1 RES     
   27066 H6        -360.0117  -101.3499   246.3627 H6            1 RES     
   27067 H6        -360.4734  -102.7445   248.3728 H6            1 RES     
   27068 H6        -360.8334  -101.2560   249.3380 H6            1 RES     
   27069 H6        -358.4937  -100.4398   248.9472 H6            1 RES     
   27070 H6        -358.1349  -101.9117   247.9632 H6            1 RES     
   27071 H6        -358.4959  -102.0666   249.7213 H6            1 RES     
   27072 H6        -367.9105  -103.7290   239.0670 H6            1 RES     
   27073 H6        -367.0385  -102.7418   240.2283 H6            1 RES     
   27074 H6        -365.5704  -103.4188   238.6454 H6            1 RES     
   27075 H6        -364.7338  -105.0235   241.1466 H6            1 RES     
   27076 H6        -364.6491  -103.2048   240.8732 H6            1 RES     
   27077 H6        -362.9451  -105.3167   239.5566 H6            1 RES     
   27078 H6        -363.0064  -103.5217   239.1622 H6            1 RES     
   27079 H6        -361.1277  -104.0114   240.4800 H6            1 RES     
   27080 H6        -362.2430  -103.1050   241.5586 H6            1 RES     
   27081 H6        -361.9970  -106.1991   241.4408 H6            1 RES     
   27082 H6        -362.8246  -105.2662   242.7315 H6            1 RES     
   27083 H6        -359.7988  -105.2700   241.9991 H6            1 RES     
   27084 H6        -360.5421  -106.2008   243.3448 H6            1 RES     
   27085 H6        -359.4172  -104.1664   244.1724 H6            1 RES     
   27086 H6        -361.1874  -104.1588   244.4796 H6            1 RES     
   27087 H6        -360.4879  -103.1199   243.1689 H6            1 RES     
   27088 H6        -365.5897  -106.4858   238.9493 H6            1 RES     
   27089 H6        -366.5757  -105.5703   237.7470 H6            1 RES     
   27090 H6        -364.8268  -104.3995   236.7854 H6            1 RES     
   27091 H6        -363.5471  -105.1935   237.6599 H6            1 RES     
   27092 H6        -363.7468  -105.6814   235.4011 H6            1 RES     
   27093 H6        -365.2516  -106.6014   235.5518 H6            1 RES     
   27094 H6        -363.9654  -108.4478   236.6728 H6            1 RES     
   27095 H6        -362.5928  -107.3370   237.0428 H6            1 RES     
   27096 H6        -362.0577  -106.9530   234.7206 H6            1 RES     
   27097 H6        -363.3873  -108.0265   234.1452 H6            1 RES     
   27098 H6        -362.1956  -110.0034   235.0264 H6            1 RES     
   27099 H6        -360.9291  -108.9567   235.7848 H6            1 RES     
   27100 H6        -360.2576  -108.0510   233.5767 H6            1 RES     
   27101 H6        -361.5307  -109.0201   232.7464 H6            1 RES     
   27102 H6        -360.3945  -111.1258   233.4256 H6            1 RES     
   27103 H6        -359.1208  -110.1698   234.2962 H6            1 RES     
   27104 H6        -359.2920  -110.0367   232.5082 H6            1 RES     
   27105 C0        -373.2509   -93.2686   241.4416 C0            1 RES     
   27106 C1        -374.5235   -93.6274   241.0943 C1            1 RES     
   27107 C1        -375.1227   -94.4229   242.0024 C1            1 RES     
   27108 C1        -374.3232   -94.7187   242.9790 C1            1 RES     
   27109 C1        -373.0051   -94.0950   242.7685 C1            1 RES     
   27110 C1        -372.2586   -95.4148   242.6455 C1            1 RES     
   27111 C1        -372.8883   -96.5321   243.1124 C1            1 RES     
   27112 S2        -374.4604   -96.1686   243.9650 S2            1 RES     
   27113 C1        -372.3668   -97.9459   242.8908 C1            1 RES     
   27114 C1        -371.0217   -98.1832   242.4810 C1            1 RES     
   27115 N3        -370.5529   -99.4449   242.2564 N3            1 RES     
   27116 C1        -371.3256  -100.5468   242.3839 C1            1 RES     
   27117 C1        -372.6544  -100.3939   242.7592 C1            1 RES     
   27118 C1        -373.1793   -99.0920   243.0222 C1            1 RES     
   27119 N3        -374.4970   -99.0713   243.3698 N3            1 RES     
   27120 S2        -374.9125  -100.6745   243.3327 S2            1 RES     
   27121 N3        -373.5141  -101.4335   242.8900 N3            1 RES     
   27122 S2        -376.6314   -94.9699   241.5270 S2            1 RES     
   27123 C1        -376.5502   -94.1321   240.0577 C1            1 RES     
   27124 C1        -375.3177   -93.4773   239.9451 C1            1 RES     
   27125 C0        -373.2502   -91.6726   241.6060 C0            1 RES     
   27126 C0        -374.2090   -90.3805   241.6825 C0            1 RES     
   27127 C0        -375.2607   -90.2306   240.5383 C0            1 RES     
   27128 C0        -376.6926   -90.1642   241.1023 C0            1 RES     
   27129 C0        -377.7959   -90.2049   240.0296 C0            1 RES     
   27130 C0        -379.1700   -90.0185   240.7008 C0            1 RES     
   27131 C0        -380.3428   -90.2443   239.7384 C0            1 RES     
   27132 C0        -381.6764   -90.0103   240.4519 C0            1 RES     
   27133 C0        -373.2111   -89.1383   241.6775 C0            1 RES     
   27134 C0        -373.5900   -87.6247   241.7229 C0            1 RES     
   27135 C0        -373.9708   -86.9353   240.3768 C0            1 RES     
   27136 C0        -373.6148   -85.4169   240.3906 C0            1 RES     
   27137 C0        -373.8741   -84.7072   239.0454 C0            1 RES     
   27138 C0        -373.0870   -83.3831   238.8644 C0            1 RES     
   27139 C0        -373.3503   -82.3035   239.9242 C0            1 RES     
   27140 C0        -372.5505   -81.0315   239.6109 C0            1 RES     
   27141 C0        -372.1864   -93.4758   240.2596 C0            1 RES     
   27142 C0        -370.6324   -92.9567   240.2164 C0            1 RES     
   27143 C0        -370.4989   -91.3840   240.3146 C0            1 RES     
   27144 C0        -369.1669   -90.7260   239.9688 C0            1 RES     
   27145 C0        -369.1780   -89.1872   239.9335 C0            1 RES     
   27146 C0        -369.2673   -88.5498   241.3357 C0            1 RES     
   27147 C0        -368.7640   -87.0950   241.3466 C0            1 RES     
   27148 C0        -369.6364   -86.1366   240.5544 C0            1 RES     
   27149 C0        -369.5075   -93.7362   241.0384 C0            1 RES     
   27150 C0        -368.1217   -93.7195   240.2880 C0            1 RES     
   27151 C0        -366.8751   -94.5267   240.7441 C0            1 RES     
   27152 C0        -365.8931   -93.8892   241.7810 C0            1 RES     
   27153 C0        -364.4455   -94.3713   241.4538 C0            1 RES     
   27154 C0        -363.2998   -93.8405   242.3426 C0            1 RES     
   27155 C0        -361.9412   -94.2202   241.7014 C0            1 RES     
   27156 C0        -360.7316   -93.7938   242.5320 C0            1 RES     
   27157 H4        -371.3324   -95.4762   242.1368 H4            1 RES     
   27158 H5        -370.3277   -97.3677   242.3580 H5            1 RES     
   27159 H4        -375.0282   -92.9490   239.0506 H4            1 RES     
   27160 H6        -372.5772   -91.5320   242.4787 H6            1 RES     
   27161 H6        -372.8408   -91.3279   240.6778 H6            1 RES     
   27162 H6        -374.7351   -90.3864   242.6624 H6            1 RES     
   27163 H6        -375.0831   -89.3278   239.9269 H6            1 RES     
   27164 H6        -375.1519   -91.0258   239.8099 H6            1 RES     
   27165 H6        -376.8572   -91.0340   241.7758 H6            1 RES     
   27166 H6        -376.7813   -89.2278   241.6962 H6            1 RES     
   27167 H6        -377.6483   -89.4039   239.2720 H6            1 RES     
   27168 H6        -377.7527   -91.1921   239.5185 H6            1 RES     
   27169 H6        -379.2228   -88.9877   241.1176 H6            1 RES     
   27170 H6        -379.2737   -90.7448   241.5363 H6            1 RES     
   27171 H6        -380.2733   -89.5556   238.8693 H6            1 RES     
   27172 H6        -380.3147   -91.2929   239.3689 H6            1 RES     
   27173 H6        -381.7709   -90.6810   241.3333 H6            1 RES     
   27174 H6        -381.7501   -88.9554   240.7937 H6            1 RES     
   27175 H6        -382.5197   -90.2176   239.7601 H6            1 RES     
   27176 H6        -372.5820   -89.2923   242.5816 H6            1 RES     
   27177 H6        -372.5310   -89.2188   240.8004 H6            1 RES     
   27178 H6        -374.2939   -87.3748   242.5421 H6            1 RES     
   27179 H6        -372.6166   -87.1580   241.9947 H6            1 RES     
   27180 H6        -373.3512   -87.3787   239.5648 H6            1 RES     
   27181 H6        -375.0413   -87.0959   240.1358 H6            1 RES     
   27182 H6        -374.1402   -84.8806   241.2088 H6            1 RES     
   27183 H6        -372.5334   -85.3377   240.5782 H6            1 RES     
   27184 H6        -373.5238   -85.3629   238.2184 H6            1 RES     
   27185 H6        -374.9652   -84.5452   238.9157 H6            1 RES     
   27186 H6        -373.3425   -82.9696   237.8636 H6            1 RES     
   27187 H6        -371.9979   -83.6131   238.8647 H6            1 RES     
   27188 H6        -373.0384   -82.6753   240.9230 H6            1 RES     
   27189 H6        -374.4305   -82.0502   239.9493 H6            1 RES     
   27190 H6        -372.8570   -80.6099   238.6291 H6            1 RES     
   27191 H6        -371.4603   -81.2472   239.5813 H6            1 RES     
   27192 H6        -372.7331   -80.2640   240.3929 H6            1 RES     
   27193 H6        -372.1682   -94.5630   240.0261 H6            1 RES     
   27194 H6        -372.6347   -93.0099   239.3523 H6            1 RES     
   27195 H6        -370.3889   -93.2078   239.1613 H6            1 RES     
   27196 H6        -370.7457   -91.0498   241.3401 H6            1 RES     
   27197 H6        -371.1896   -90.9581   239.5556 H6            1 RES     
   27198 H6        -368.4131   -90.9833   240.7336 H6            1 RES     
   27199 H6        -368.8760   -91.0815   238.9567 H6            1 RES     
   27200 H6        -368.1904   -88.9067   239.5099 H6            1 RES     
   27201 H6        -369.9651   -88.7954   239.2514 H6            1 RES     
   27202 H6        -368.5802   -89.0971   242.0151 H6            1 RES     
   27203 H6        -370.2936   -88.6327   241.7514 H6            1 RES     
   27204 H6        -367.7289   -87.0646   240.9422 H6            1 RES     
   27205 H6        -368.7299   -86.7364   242.3982 H6            1 RES     
   27206 H6        -369.2013   -85.1151   240.5987 H6            1 RES     
   27207 H6        -370.6294   -86.1182   241.0257 H6            1 RES     
   27208 H6        -369.7203   -86.4381   239.4902 H6            1 RES     
   27209 H6        -369.4577   -93.3891   242.0938 H6            1 RES     
   27210 H6        -369.7474   -94.8117   241.0222 H6            1 RES     
   27211 H6        -368.3675   -94.1416   239.2898 H6            1 RES     
   27212 H6        -367.7165   -92.7343   240.0827 H6            1 RES     
   27213 H6        -366.2916   -94.5420   239.7960 H6            1 RES     
   27214 H6        -367.0963   -95.5894   240.9746 H6            1 RES     
   27215 H6        -366.2037   -94.1340   242.8199 H6            1 RES     
   27216 H6        -365.8810   -92.7831   241.6684 H6            1 RES     
   27217 H6        -364.2253   -94.0191   240.4205 H6            1 RES     
   27218 H6        -364.4059   -95.4818   241.4592 H6            1 RES     
   27219 H6        -363.3842   -94.2789   243.3604 H6            1 RES     
   27220 H6        -363.3501   -92.7327   242.4206 H6            1 RES     
   27221 H6        -361.8614   -93.7278   240.7059 H6            1 RES     
   27222 H6        -361.8846   -95.3199   241.5508 H6            1 RES     
   27223 H6        -360.7306   -94.3153   243.5116 H6            1 RES     
   27224 H6        -360.7267   -92.6956   242.6925 H6            1 RES     
   27225 H6        -359.7994   -94.0705   241.9896 H6            1 RES     
   27226 C0        -381.2126   -95.2502   232.1965 C0            1 RES     
   27227 C1        -381.7567   -96.4215   232.6444 C1            1 RES     
   27228 C1        -382.4388   -96.2885   233.7994 C1            1 RES     
   27229 C1        -382.3697   -95.0778   234.2575 C1            1 RES     
   27230 C1        -381.5495   -94.2391   233.3661 C1            1 RES     
   27231 C1        -380.4658   -93.9764   234.4009 C1            1 RES     
   27232 C1        -380.7801   -94.2189   235.7068 C1            1 RES     
   27233 S2        -382.5353   -94.6522   235.9559 S2            1 RES     
   27234 C1        -379.7585   -94.1936   236.8362 C1            1 RES     
   27235 C1        -378.4798   -93.5860   236.6647 C1            1 RES     
   27236 N3        -377.5493   -93.5802   237.6629 N3            1 RES     
   27237 C1        -377.7611   -94.1613   238.8649 C1            1 RES     
   27238 C1        -378.9761   -94.7928   239.0994 C1            1 RES     
   27239 C1        -379.9841   -94.8049   238.0878 C1            1 RES     
   27240 N3        -381.1256   -95.4650   238.4325 N3            1 RES     
   27241 S2        -380.8021   -95.9795   239.9737 S2            1 RES     
   27242 N3        -379.2736   -95.4238   240.2614 N3            1 RES     
   27243 S2        -382.9999   -97.7378   234.4207 S2            1 RES     
   27244 C1        -382.3515   -98.6230   233.1310 C1            1 RES     
   27245 C1        -381.6626   -97.7697   232.2604 C1            1 RES     
   27246 C0        -381.9015   -94.9326   230.7826 C0            1 RES     
   27247 C0        -383.0948   -95.3785   229.7968 C0            1 RES     
   27248 C0        -383.1836   -96.9010   229.4625 C0            1 RES     
   27249 C0        -384.5544   -97.4803   229.8604 C0            1 RES     
   27250 C0        -384.6528   -99.0114   229.7356 C0            1 RES     
   27251 C0        -386.0932   -99.4593   230.0490 C0            1 RES     
   27252 C0        -386.2396  -100.9831   230.1454 C0            1 RES     
   27253 C0        -387.6951  -101.3668   230.4218 C0            1 RES     
   27254 C0        -382.8525   -94.5371   228.4656 C0            1 RES     
   27255 C0        -383.7032   -94.5768   227.1574 C0            1 RES     
   27256 C0        -383.3984   -95.7121   226.1325 C0            1 RES     
   27257 C0        -383.7180   -95.2660   224.6725 C0            1 RES     
   27258 C0        -383.3363   -96.3141   223.6066 C0            1 RES     
   27259 C0        -383.1636   -95.7334   222.1789 C0            1 RES     
   27260 C0        -384.3953   -95.0253   221.5961 C0            1 RES     
   27261 C0        -384.1134   -94.5365   220.1688 C0            1 RES     
   27262 C0        -379.6679   -95.3826   231.7850 C0            1 RES     
   27263 C0        -378.7469   -94.2747   231.0034 C0            1 RES     
   27264 C0        -379.2937   -93.9155   229.5636 C0            1 RES     
   27265 C0        -378.3937   -93.1592   228.5918 C0            1 RES     
   27266 C0        -378.9472   -92.9991   227.1644 C0            1 RES     
   27267 C0        -380.1041   -91.9825   227.0739 C0            1 RES     
   27268 C0        -380.2956   -91.4447   225.6442 C0            1 RES     
   27269 C0        -380.7729   -92.4914   224.6524 C0            1 RES     
   27270 C0        -378.1773   -93.0100   231.7937 C0            1 RES     
   27271 C0        -376.7551   -92.5850   231.2640 C0            1 RES     
   27272 C0        -375.8659   -91.5002   231.9321 C0            1 RES     
   27273 C0        -376.0503   -90.0036   231.5174 C0            1 RES     
   27274 C0        -374.6605   -89.2970   231.5805 C0            1 RES     
   27275 C0        -374.6004   -87.8061   231.1830 C0            1 RES     
   27276 C0        -373.1180   -87.3718   231.0608 C0            1 RES     
   27277 C0        -372.9391   -85.8913   230.7278 C0            1 RES     
   27278 H4        -379.4842   -93.7065   234.1113 H4            1 RES     
   27279 H5        -378.2202   -93.0920   235.7426 H5            1 RES     
   27280 H4        -381.1068   -98.1406   231.4139 H4            1 RES     
   27281 H6        -382.0180   -93.8286   230.8268 H6            1 RES     
   27282 H6        -381.1736   -95.2676   230.0714 H6            1 RES     
   27283 H6        -384.0609   -95.0449   230.2354 H6            1 RES     
   27284 H6        -383.0176   -97.1006   228.3887 H6            1 RES     
   27285 H6        -382.3679   -97.4442   229.9254 H6            1 RES     
   27286 H6        -384.7616   -97.2233   230.9226 H6            1 RES     
   27287 H6        -385.3258   -97.0012   229.2177 H6            1 RES     
   27288 H6        -384.3807   -99.3486   228.7112 H6            1 RES     
   27289 H6        -383.9453   -99.4692   230.4619 H6            1 RES     
   27290 H6        -386.7657   -99.0698   229.2521 H6            1 RES     
   27291 H6        -386.4100   -99.0269   231.0232 H6            1 RES     
   27292 H6        -385.9122  -101.4677   229.2007 H6            1 RES     
   27293 H6        -385.6068  -101.3582   230.9795 H6            1 RES     
   27294 H6        -388.0541  -100.8886   231.3589 H6            1 RES     
   27295 H6        -388.3451  -101.0422   229.5809 H6            1 RES     
   27296 H6        -387.7839  -102.4680   230.5326 H6            1 RES     
   27297 H6        -382.9103   -93.4780   228.8000 H6            1 RES     
   27298 H6        -381.8099   -94.7020   228.1132 H6            1 RES     
   27299 H6        -384.7893   -94.4484   227.3384 H6            1 RES     
   27300 H6        -383.3617   -93.6524   226.6398 H6            1 RES     
   27301 H6        -382.3042   -95.9178   226.1478 H6            1 RES     
   27302 H6        -383.9395   -96.6433   226.3968 H6            1 RES     
   27303 H6        -384.7844   -94.9791   224.5562 H6            1 RES     
   27304 H6        -383.1066   -94.3755   224.4629 H6            1 RES     
   27305 H6        -382.3428   -96.7433   223.8624 H6            1 RES     
   27306 H6        -384.0790   -97.1399   223.6157 H6            1 RES     
   27307 H6        -382.8811   -96.5708   221.5029 H6            1 RES     
   27308 H6        -382.3179   -95.0097   222.1884 H6            1 RES     
   27309 H6        -384.6525   -94.1452   222.2226 H6            1 RES     
   27310 H6        -385.2589   -95.7219   221.5721 H6            1 RES     
   27311 H6        -383.8812   -95.3945   219.5013 H6            1 RES     
   27312 H6        -383.2539   -93.8315   220.1548 H6            1 RES     
   27313 H6        -385.0034   -94.0096   219.7635 H6            1 RES     
   27314 H6        -379.1111   -95.6724   232.7030 H6            1 RES     
   27315 H6        -379.5968   -96.2799   231.1286 H6            1 RES     
   27316 H6        -377.8374   -94.8893   230.8282 H6            1 RES     
   27317 H6        -380.2180   -93.3139   229.6527 H6            1 RES     
   27318 H6        -379.4682   -94.8797   229.0399 H6            1 RES     
   27319 H6        -378.2408   -92.1260   228.9505 H6            1 RES     
   27320 H6        -377.4389   -93.7236   228.5188 H6            1 RES     
   27321 H6        -378.1008   -92.5835   226.5776 H6            1 RES     
   27322 H6        -379.2236   -93.9795   226.7163 H6            1 RES     
   27323 H6        -379.8386   -91.0925   227.6829 H6            1 RES     
   27324 H6        -381.0455   -92.4057   227.4833 H6            1 RES     
   27325 H6        -379.3355   -91.0138   225.2855 H6            1 RES     
   27326 H6        -381.0485   -90.6273   225.6676 H6            1 RES     
   27327 H6        -380.8728   -92.0312   223.6459 H6            1 RES     
   27328 H6        -381.7625   -92.8394   224.9813 H6            1 RES     
   27329 H6        -380.0681   -93.3449   224.5814 H6            1 RES     
   27330 H6        -378.9174   -92.1806   231.8260 H6            1 RES     
   27331 H6        -377.9384   -93.3220   232.8233 H6            1 RES     
   27332 H6        -376.1593   -93.5186   231.3568 H6            1 RES     
   27333 H6        -376.7094   -92.3278   230.2111 H6            1 RES     
   27334 H6        -374.8714   -91.7742   231.5132 H6            1 RES     
   27335 H6        -375.7698   -91.6221   233.0308 H6            1 RES     
   27336 H6        -376.8140   -89.5090   232.1562 H6            1 RES     
   27337 H6        -376.3808   -89.9368   230.4579 H6            1 RES     
   27338 H6        -374.0031   -89.8366   230.8615 H6            1 RES     
   27339 H6        -374.2266   -89.4049   232.5978 H6            1 RES     
   27340 H6        -375.1216   -87.1946   231.9508 H6            1 RES     
   27341 H6        -375.0918   -87.6465   230.1987 H6            1 RES     
   27342 H6        -372.6336   -87.9639   230.2518 H6            1 RES     
   27343 H6        -372.5806   -87.5778   232.0117 H6            1 RES     
   27344 H6        -373.3465   -85.2584   231.5431 H6            1 RES     
   27345 H6        -373.4390   -85.6361   229.7703 H6            1 RES     
   27346 H6        -371.8532   -85.6683   230.6238 H6            1 RES     
   27347 C0        -380.3786  -107.5820   232.3361 C0            1 RES     
   27348 C1        -380.6014  -107.7856   233.6694 C1            1 RES     
   27349 C1        -381.8350  -107.4177   234.0689 C1            1 RES     
   27350 C1        -382.5140  -106.8919   233.0978 C1            1 RES     
   27351 C1        -381.7037  -106.8551   231.8677 C1            1 RES     
   27352 C1        -381.6776  -105.3366   231.7787 C1            1 RES     
   27353 C1        -382.6083  -104.6542   232.5074 C1            1 RES     
   27354 S2        -383.8277  -105.7436   233.3179 S2            1 RES     
   27355 C1        -382.5961  -103.1410   232.6810 C1            1 RES     
   27356 C1        -381.8214  -102.3038   231.8251 C1            1 RES     
   27357 N3        -381.7852  -100.9494   231.9885 N3            1 RES     
   27358 C1        -382.4558  -100.3126   232.9745 C1            1 RES     
   27359 C1        -383.2157  -101.0640   233.8622 C1            1 RES     
   27360 C1        -383.2955  -102.4823   233.7143 C1            1 RES     
   27361 N3        -384.0610  -103.1081   234.6524 N3            1 RES     
   27362 S2        -384.5899  -101.8515   235.5936 S2            1 RES     
   27363 N3        -383.9031  -100.5212   234.8963 N3            1 RES     
   27364 S2        -382.0736  -107.5444   235.7206 S2            1 RES     
   27365 C1        -380.5035  -108.1259   235.9740 C1            1 RES     
   27366 C1        -379.8031  -108.1630   234.7622 C1            1 RES     
   27367 C0        -380.1103  -109.0249   231.6876 C0            1 RES     
   27368 C0        -380.1755  -110.6071   231.9826 C0            1 RES     
   27369 C0        -379.4713  -111.0973   233.2869 C0            1 RES     
   27370 C0        -380.4595  -111.8334   234.2113 C0            1 RES     
   27371 C0        -379.8872  -112.1821   235.5971 C0            1 RES     
   27372 C0        -380.9206  -113.0102   236.3845 C0            1 RES     
   27373 C0        -380.5201  -113.2336   237.8481 C0            1 RES     
   27374 C0        -381.5651  -114.0903   238.5666 C0            1 RES     
   27375 C0        -379.5005  -111.2822   230.7069 C0            1 RES     
   27376 C0        -379.2784  -112.8064   230.4537 C0            1 RES     
   27377 C0        -378.0186  -113.4680   231.0919 C0            1 RES     
   27378 C0        -377.5115  -114.6726   230.2407 C0            1 RES     
   27379 C0        -376.2049  -115.2993   230.7703 C0            1 RES     
   27380 C0        -375.4232  -116.1239   229.7146 C0            1 RES     
   27381 C0        -376.1878  -117.3010   229.0918 C0            1 RES     
   27382 C0        -375.2962  -118.0614   228.1006 C0            1 RES     
   27383 C0        -378.9981  -106.8245   232.0302 C0            1 RES     
   27384 C0        -378.2839  -106.6061   230.5712 C0            1 RES     
   27385 C0        -377.9159  -107.9640   229.8491 C0            1 RES     
   27386 C0        -376.9702  -107.9395   228.6526 C0            1 RES     
   27387 C0        -376.5411  -109.3183   228.1195 C0            1 RES     
   27388 C0        -377.6689  -110.0546   227.3670 C0            1 RES     
   27389 C0        -377.1246  -111.1375   226.4179 C0            1 RES     
   27390 C0        -376.4643  -112.3047   227.1312 C0            1 RES     
   27391 C0        -378.8367  -105.4913   229.5711 C0            1 RES     
   27392 C0        -377.6749  -104.8327   228.7341 C0            1 RES     
   27393 C0        -377.8630  -103.6068   227.7985 C0            1 RES     
   27394 C0        -378.2896  -103.8420   226.3123 C0            1 RES     
   27395 C0        -377.6176  -102.7484   225.4249 C0            1 RES     
   27396 C0        -377.8817  -102.8031   223.9045 C0            1 RES     
   27397 C0        -376.9312  -101.8117   223.1873 C0            1 RES     
   27398 C0        -377.1479  -101.7398   221.6765 C0            1 RES     
   27399 H4        -380.9137  -104.8309   231.2486 H4            1 RES     
   27400 H5        -381.2569  -102.7192   231.0062 H5            1 RES     
   27401 H4        -378.7591  -108.4284   234.7107 H4            1 RES     
   27402 H6        -380.6259  -108.9355   230.7076 H6            1 RES     
   27403 H6        -379.0422  -109.0705   231.6175 H6            1 RES     
   27404 H6        -381.2425  -110.9203   232.0049 H6            1 RES     
   27405 H6        -378.6235  -111.7723   233.0724 H6            1 RES     
   27406 H6        -378.9847  -110.2723   233.7941 H6            1 RES     
   27407 H6        -381.3501  -111.1879   234.3767 H6            1 RES     
   27408 H6        -380.7812  -112.7639   233.6934 H6            1 RES     
   27409 H6        -378.9447  -112.7660   235.5064 H6            1 RES     
   27410 H6        -379.6692  -111.2336   236.1359 H6            1 RES     
   27411 H6        -381.0457  -113.9934   235.8778 H6            1 RES     
   27412 H6        -381.8986  -112.4811   236.3785 H6            1 RES     
   27413 H6        -379.5336  -113.7409   237.9103 H6            1 RES     
   27414 H6        -380.4509  -112.2495   238.3616 H6            1 RES     
   27415 H6        -382.5667  -113.6111   238.5136 H6            1 RES     
   27416 H6        -381.6236  -115.0974   238.1005 H6            1 RES     
   27417 H6        -381.2891  -114.2107   239.6352 H6            1 RES     
   27418 H6        -380.1365  -110.9513   229.8566 H6            1 RES     
   27419 H6        -378.4951  -110.8336   230.5445 H6            1 RES     
   27420 H6        -380.1957  -113.4117   230.5992 H6            1 RES     
   27421 H6        -379.0634  -112.8233   229.3616 H6            1 RES     
   27422 H6        -377.1874  -112.7270   231.0834 H6            1 RES     
   27423 H6        -378.2153  -113.7703   232.1406 H6            1 RES     
   27424 H6        -378.2912  -115.4561   230.1347 H6            1 RES     
   27425 H6        -377.2841  -114.2878   229.2351 H6            1 RES     
   27426 H6        -375.5092  -114.4846   231.0686 H6            1 RES     
   27427 H6        -376.4249  -115.9093   231.6719 H6            1 RES     
   27428 H6        -374.5027  -116.5151   230.2020 H6            1 RES     
   27429 H6        -375.1050  -115.4422   228.8942 H6            1 RES     
   27430 H6        -377.0761  -116.9223   228.5433 H6            1 RES     
   27431 H6        -376.5197  -118.0019   229.8856 H6            1 RES     
   27432 H6        -374.4084  -118.4839   228.6193 H6            1 RES     
   27433 H6        -374.9470  -117.3893   227.2868 H6            1 RES     
   27434 H6        -375.8639  -118.8988   227.6419 H6            1 RES     
   27435 H6        -379.0648  -105.8225   232.5080 H6            1 RES     
   27436 H6        -378.2151  -107.3553   232.6188 H6            1 RES     
   27437 H6        -377.3144  -106.1795   230.9084 H6            1 RES     
   27438 H6        -378.8383  -108.4637   229.4972 H6            1 RES     
   27439 H6        -377.3613  -108.5784   230.5903 H6            1 RES     
   27440 H6        -377.4642  -107.4490   227.7954 H6            1 RES     
   27441 H6        -376.0501  -107.4027   228.9701 H6            1 RES     
   27442 H6        -375.7432  -109.0994   227.3785 H6            1 RES     
   27443 H6        -376.0980  -109.9512   228.9204 H6            1 RES     
   27444 H6        -378.1849  -109.3259   226.7065 H6            1 RES     
   27445 H6        -378.4216  -110.4664   228.0718 H6            1 RES     
   27446 H6        -376.3928  -110.6758   225.7199 H6            1 RES     
   27447 H6        -377.9665  -111.5385   225.8130 H6            1 RES     
   27448 H6        -376.0868  -113.0328   226.3813 H6            1 RES     
   27449 H6        -377.2291  -112.7978   227.7481 H6            1 RES     
   27450 H6        -375.6135  -111.9753   227.7621 H6            1 RES     
   27451 H6        -379.6795  -105.8756   228.9557 H6            1 RES     
   27452 H6        -379.1858  -104.6321   230.1664 H6            1 RES     
   27453 H6        -376.9712  -104.4721   229.5150 H6            1 RES     
   27454 H6        -377.0924  -105.5187   228.1283 H6            1 RES     
   27455 H6        -376.8103  -103.2525   227.7226 H6            1 RES     
   27456 H6        -378.4245  -102.7733   228.2689 H6            1 RES     
   27457 H6        -379.3971  -103.8526   226.2173 H6            1 RES     
   27458 H6        -377.8957  -104.8164   225.9495 H6            1 RES     
   27459 H6        -376.5186  -102.8739   225.5536 H6            1 RES     
   27460 H6        -377.8982  -101.7378   225.7919 H6            1 RES     
   27461 H6        -378.9421  -102.5398   223.7009 H6            1 RES     
   27462 H6        -377.6806  -103.8236   223.5119 H6            1 RES     
   27463 H6        -375.8783  -102.1274   223.3656 H6            1 RES     
   27464 H6        -377.0625  -100.7892   223.6027 H6            1 RES     
   27465 H6        -378.1658  -101.3612   221.4483 H6            1 RES     
   27466 H6        -377.0044  -102.7349   221.2065 H6            1 RES     
   27467 H6        -376.4076  -101.0357   221.2337 H6            1 RES     
   27468 C0        -375.3341  -108.4518   243.5871 C0            1 RES     
   27469 C1        -376.2320  -107.6818   244.2724 C1            1 RES     
   27470 C1        -377.4745  -108.2034   244.2994 C1            1 RES     
   27471 C1        -377.5476  -109.2980   243.6089 C1            1 RES     
   27472 C1        -376.2410  -109.6096   243.0034 C1            1 RES     
   27473 C1        -376.7281  -109.4647   241.5695 C1            1 RES     
   27474 C1        -378.0768  -109.5031   241.3633 C1            1 RES     
   27475 S2        -379.0240  -109.9049   242.8706 S2            1 RES     
   27476 C1        -378.7326  -109.1815   240.0268 C1            1 RES     
   27477 C1        -377.9754  -109.1509   238.8187 C1            1 RES     
   27478 N3        -378.5497  -108.8398   237.6206 N3            1 RES     
   27479 C1        -379.8574  -108.5211   237.4960 C1            1 RES     
   27480 C1        -380.6555  -108.5080   238.6332 C1            1 RES     
   27481 C1        -380.0976  -108.8462   239.9036 C1            1 RES     
   27482 N3        -380.9768  -108.7855   240.9433 N3            1 RES     
   27483 S2        -382.3867  -108.3231   240.2065 S2            1 RES     
   27484 N3        -381.9700  -108.1785   238.6149 N3            1 RES     
   27485 S2        -378.6069  -107.2078   245.0259 S2            1 RES     
   27486 C1        -377.4508  -106.0156   245.3565 C1            1 RES     
   27487 C1        -376.2048  -106.3995   244.8458 C1            1 RES     
   27488 C0        -374.2170  -108.9091   244.6442 C0            1 RES     
   27489 C0        -373.8600  -108.9424   246.2146 C0            1 RES     
   27490 C0        -373.9867  -107.5885   246.9817 C0            1 RES     
   27491 C0        -374.9724  -107.7051   248.1598 C0            1 RES     
   27492 C0        -375.2933  -106.3666   248.8490 C0            1 RES     
   27493 C0        -376.1928  -106.6236   250.0731 C0            1 RES     
   27494 C0        -376.7277  -105.3326   250.7055 C0            1 RES     
   27495 C0        -377.5824  -105.6502   251.9346 C0            1 RES     
   27496 C0        -372.3574  -109.4691   246.2743 C0            1 RES     
   27497 C0        -371.4850  -109.6870   247.5503 C0            1 RES     
   27498 C0        -370.7519  -108.4451   248.1441 C0            1 RES     
   27499 C0        -369.4316  -108.8520   248.8680 C0            1 RES     
   27500 C0        -368.6121  -107.6509   249.3838 C0            1 RES     
   27501 C0        -367.1147  -107.9659   249.6367 C0            1 RES     
   27502 C0        -366.8332  -109.0852   250.6497 C0            1 RES     
   27503 C0        -365.3222  -109.2704   250.8452 C0            1 RES     
   27504 C0        -374.4612  -107.6211   242.5283 C0            1 RES     
   27505 C0        -373.1484  -108.1393   241.6950 C0            1 RES     
   27506 C0        -371.9479  -108.5695   242.6302 C0            1 RES     
   27507 C0        -370.5627  -108.7652   242.0224 C0            1 RES     
   27508 C0        -369.4276  -109.0212   243.0301 C0            1 RES     
   27509 C0        -369.4830  -110.4284   243.6602 C0            1 RES     
   27510 C0        -368.1215  -110.8640   244.2317 C0            1 RES     
   27511 C0        -367.6669  -110.0462   245.4282 C0            1 RES     
   27512 C0        -373.3326  -109.0937   240.4286 C0            1 RES     
   27513 C0        -372.2506  -108.8046   239.3197 C0            1 RES     
   27514 C0        -372.2606  -109.4472   237.9053 C0            1 RES     
   27515 C0        -371.5610  -110.8297   237.6924 C0            1 RES     
   27516 C0        -370.9507  -110.8604   236.2566 C0            1 RES     
   27517 C0        -370.1832  -112.1324   235.8356 C0            1 RES     
   27518 C0        -369.4449  -111.8622   234.5004 C0            1 RES     
   27519 C0        -368.6968  -113.0788   233.9573 C0            1 RES     
   27520 H4        -376.0558  -109.2511   240.7804 H4            1 RES     
   27521 H5        -376.9258  -109.3962   238.8162 H5            1 RES     
   27522 H4        -375.3459  -105.7482   244.8787 H4            1 RES     
   27523 H6        -374.0096  -109.9520   244.3222 H6            1 RES     
   27524 H6        -373.4109  -108.2269   244.4638 H6            1 RES     
   27525 H6        -374.5038  -109.7028   246.7089 H6            1 RES     
   27526 H6        -373.0138  -107.2403   247.3725 H6            1 RES     
   27527 H6        -374.2617  -106.7878   246.3051 H6            1 RES     
   27528 H6        -375.9341  -108.1217   247.7873 H6            1 RES     
   27529 H6        -374.5366  -108.4128   248.8993 H6            1 RES     
   27530 H6        -374.3639  -105.8533   249.1806 H6            1 RES     
   27531 H6        -375.8210  -105.7135   248.1193 H6            1 RES     
   27532 H6        -375.6071  -107.1940   250.8286 H6            1 RES     
   27533 H6        -377.0676  -107.2371   249.7654 H6            1 RES     
   27534 H6        -375.8894  -104.6705   251.0108 H6            1 RES     
   27535 H6        -377.3569  -104.7958   249.9620 H6            1 RES     
   27536 H6        -378.4265  -106.3199   251.6611 H6            1 RES     
   27537 H6        -376.9662  -106.1488   252.7135 H6            1 RES     
   27538 H6        -378.0001  -104.7136   252.3601 H6            1 RES     
   27539 H6        -372.4026  -110.4724   245.7967 H6            1 RES     
   27540 H6        -371.7207  -108.8341   245.6188 H6            1 RES     
   27541 H6        -371.9920  -110.2929   248.3280 H6            1 RES     
   27542 H6        -370.6591  -110.3183   247.1521 H6            1 RES     
   27543 H6        -370.4391  -107.7842   247.3043 H6            1 RES     
   27544 H6        -371.4207  -107.8722   248.8180 H6            1 RES     
   27545 H6        -369.6226  -109.5643   249.6982 H6            1 RES     
   27546 H6        -368.7982  -109.3628   248.1272 H6            1 RES     
   27547 H6        -368.6092  -106.8557   248.6063 H6            1 RES     
   27548 H6        -369.0936  -107.2372   250.2952 H6            1 RES     
   27549 H6        -366.6260  -107.0320   249.9928 H6            1 RES     
   27550 H6        -366.6408  -108.2449   248.6689 H6            1 RES     
   27551 H6        -367.2574  -110.0419   250.2782 H6            1 RES     
   27552 H6        -367.2932  -108.8370   251.6287 H6            1 RES     
   27553 H6        -364.8639  -108.3407   251.2469 H6            1 RES     
   27554 H6        -364.8272  -109.5244   249.8827 H6            1 RES     
   27555 H6        -365.1289  -110.0941   251.5649 H6            1 RES     
   27556 H6        -375.1702  -107.2014   241.7813 H6            1 RES     
   27557 H6        -374.0792  -106.7276   243.0732 H6            1 RES     
   27558 H6        -372.8348  -107.1760   241.2374 H6            1 RES     
   27559 H6        -372.1925  -109.5199   243.1413 H6            1 RES     
   27560 H6        -371.7881  -107.7355   243.3467 H6            1 RES     
   27561 H6        -370.5633  -109.6554   241.3690 H6            1 RES     
   27562 H6        -370.3123  -107.8363   241.4657 H6            1 RES     
   27563 H6        -368.4966  -108.9703   242.4267 H6            1 RES     
   27564 H6        -369.3755  -108.2241   243.8049 H6            1 RES     
   27565 H6        -369.7073  -111.1639   242.8588 H6            1 RES     
   27566 H6        -370.2891  -110.4981   244.4206 H6            1 RES     
   27567 H6        -367.3526  -110.7976   243.4315 H6            1 RES     
   27568 H6        -368.1911  -111.9266   244.5503 H6            1 RES     
   27569 H6        -366.6750  -110.4107   245.7720 H6            1 RES     
   27570 H6        -368.3976  -110.1970   246.2355 H6            1 RES     
   27571 H6        -367.5806  -108.9680   245.1827 H6            1 RES     
   27572 H6        -373.4027  -110.1623   240.7284 H6            1 RES     
   27573 H6        -374.2584  -108.8032   239.9059 H6            1 RES     
   27574 H6        -372.3706  -107.7172   239.1242 H6            1 RES     
   27575 H6        -371.2193  -108.9196   239.6360 H6            1 RES     
   27576 H6        -371.6092  -108.7296   237.3574 H6            1 RES     
   27577 H6        -373.2487  -109.3956   237.4029 H6            1 RES     
   27578 H6        -372.2728  -111.6638   237.8755 H6            1 RES     
   27579 H6        -370.7041  -110.9381   238.3925 H6            1 RES     
   27580 H6        -370.2154  -110.0252   236.2121 H6            1 RES     
   27581 H6        -371.7445  -110.6662   235.5035 H6            1 RES     
   27582 H6        -370.8965  -112.9768   235.7204 H6            1 RES     
   27583 H6        -369.4257  -112.4009   236.6037 H6            1 RES     
   27584 H6        -368.7021  -111.0475   234.6566 H6            1 RES     
   27585 H6        -370.1683  -111.5290   233.7252 H6            1 RES     
   27586 H6        -369.4077  -113.8970   233.7196 H6            1 RES     
   27587 H6        -367.9415  -113.4391   234.6863 H6            1 RES     
   27588 H6        -368.1677  -112.7945   233.0197 H6            1 RES     
   27589 C0        -378.3848   -97.0641   247.3022 C0            1 RES     
   27590 C1        -379.7162   -97.0999   246.9944 C1            1 RES     
   27591 C1        -380.4088   -98.0043   247.7149 C1            1 RES     
   27592 C1        -379.6329   -98.6837   248.5004 C1            1 RES     
   27593 C1        -378.2339   -98.2514   248.3374 C1            1 RES     
   27594 C1        -377.7487   -99.5908   247.8036 C1            1 RES     
   27595 C1        -378.5506  -100.6741   248.0189 C1            1 RES     
   27596 S2        -379.9883  -100.3054   249.0809 S2            1 RES     
   27597 C1        -378.3082  -102.0386   247.3870 C1            1 RES     
   27598 C1        -377.0499  -102.3719   246.8047 C1            1 RES     
   27599 N3        -376.8314  -103.5829   246.2147 N3            1 RES     
   27600 C1        -377.7865  -104.5350   246.1214 C1            1 RES     
   27601 C1        -379.0460  -104.2749   246.6469 C1            1 RES     
   27602 C1        -379.3102  -103.0272   247.2896 C1            1 RES     
   27603 N3        -380.5843  -102.8866   247.7529 N3            1 RES     
   27604 S2        -381.2883  -104.3273   247.3367 S2            1 RES     
   27605 N3        -380.0748  -105.1547   246.5813 N3            1 RES     
   27606 S2        -382.0125   -98.1445   247.2570 S2            1 RES     
   27607 C1        -381.8468   -96.9610   246.0573 C1            1 RES     
   27608 C1        -380.5216   -96.5121   246.0046 C1            1 RES     
   27609 C0        -378.0836   -95.5970   247.8778 C0            1 RES     
   27610 C0        -378.7844   -94.2362   248.3796 C0            1 RES     
   27611 C0        -379.8424   -93.6078   247.4188 C0            1 RES     
   27612 C0        -381.2103   -93.4644   248.1125 C0            1 RES     
   27613 C0        -382.3506   -93.0276   247.1753 C0            1 RES     
   27614 C0        -383.6347   -92.8094   247.9980 C0            1 RES     
   27615 C0        -384.8721   -92.5668   247.1248 C0            1 RES     
   27616 C0        -386.1057   -92.3218   247.9969 C0            1 RES     
   27617 C0        -377.5768   -93.2217   248.6061 C0            1 RES     
   27618 C0        -377.6690   -91.7377   249.0815 C0            1 RES     
   27619 C0        -377.9786   -90.6528   248.0047 C0            1 RES     
   27620 C0        -377.3497   -89.2763   248.3820 C0            1 RES     
   27621 C0        -377.5361   -88.1924   247.3000 C0            1 RES     
   27622 C0        -376.5286   -87.0173   247.3986 C0            1 RES     
   27623 C0        -376.5401   -86.2418   248.7239 C0            1 RES     
   27624 C0        -375.5358   -85.0820   248.6807 C0            1 RES     
   27625 C0        -377.4321   -97.1110   246.0125 C0            1 RES     
   27626 C0        -375.8129   -96.8625   245.9608 C0            1 RES     
   27627 C0        -375.3887   -95.4211   246.4541 C0            1 RES     
   27628 C0        -373.9760   -94.9216   246.1689 C0            1 RES     
   27629 C0        -373.7061   -93.4520   246.5388 C0            1 RES     
   27630 C0        -373.6121   -93.2179   248.0609 C0            1 RES     
   27631 C0        -372.8504   -91.9251   248.4048 C0            1 RES     
   27632 C0        -373.5677   -90.6565   247.9767 C0            1 RES     
   27633 C0        -374.8135   -98.0112   246.4405 C0            1 RES     
   27634 C0        -373.4843   -98.0172   245.5937 C0            1 RES     
   27635 C0        -372.3873   -99.1119   245.7033 C0            1 RES     
   27636 C0        -371.2582   -98.9534   246.7738 C0            1 RES     
   27637 C0        -369.9403   -99.5582   246.1972 C0            1 RES     
   27638 C0        -368.6769   -99.4871   247.0821 C0            1 RES     
   27639 C0        -367.4421   -99.8941   246.2391 C0            1 RES     
   27640 C0        -366.1378   -99.9165   247.0347 C0            1 RES     
   27641 H4        -376.8740   -99.6616   247.2118 H4            1 RES     
   27642 H5        -376.2245  -101.6794   246.8347 H5            1 RES     
   27643 H4        -380.1817   -95.8137   245.2564 H4            1 RES     
   27644 H6        -377.3567   -95.8137   248.6896 H6            1 RES     
   27645 H6        -377.6613   -95.0831   247.0380 H6            1 RES     
   27646 H6        -379.2569   -94.4243   249.3688 H6            1 RES     
   27647 H6        -379.5306   -92.6138   247.0511 H6            1 RES     
   27648 H6        -379.9151   -94.1793   246.5008 H6            1 RES     
   27649 H6        -381.5004   -94.4462   248.5474 H6            1 RES     
   27650 H6        -381.0981   -92.7255   248.9365 H6            1 RES     
   27651 H6        -382.0937   -92.0851   246.6433 H6            1 RES     
   27652 H6        -382.5129   -93.8299   246.4219 H6            1 RES     
   27653 H6        -383.4782   -91.9383   248.6732 H6            1 RES     
   27654 H6        -383.8312   -93.7097   248.6203 H6            1 RES     
   27655 H6        -384.7177   -91.6873   246.4637 H6            1 RES     
   27656 H6        -385.0541   -93.4637   246.4928 H6            1 RES     
   27657 H6        -386.2810   -93.1836   248.6768 H6            1 RES     
   27658 H6        -385.9687   -91.4039   248.6082 H6            1 RES     
   27659 H6        -387.0038   -92.1900   247.3574 H6            1 RES     
   27660 H6        -376.9457   -93.7189   249.3751 H6            1 RES     
   27661 H6        -376.9643   -93.1691   247.6785 H6            1 RES     
   27662 H6        -378.2765   -91.6101   250.0000 H6            1 RES     
   27663 H6        -376.6150   -91.5299   249.3732 H6            1 RES     
   27664 H6        -377.4890   -90.9520   247.0504 H6            1 RES     
   27665 H6        -379.0703   -90.5631   247.8319 H6            1 RES     
   27666 H6        -377.7294   -88.9063   249.3577 H6            1 RES     
   27667 H6        -376.2646   -89.4303   248.4812 H6            1 RES     
   27668 H6        -377.3507   -88.6444   246.3010 H6            1 RES     
   27669 H6        -378.5837   -87.8241   247.3204 H6            1 RES     
   27670 H6        -376.7498   -86.3091   246.5695 H6            1 RES     
   27671 H6        -375.5014   -87.4142   247.2362 H6            1 RES     
   27672 H6        -376.2560   -86.9193   249.5567 H6            1 RES     
   27673 H6        -377.5531   -85.8313   248.9159 H6            1 RES     
   27674 H6        -375.8046   -84.3629   247.8768 H6            1 RES     
   27675 H6        -374.5062   -85.4573   248.4932 H6            1 RES     
   27676 H6        -375.5382   -84.5392   249.6498 H6            1 RES     
   27677 H6        -377.6245   -98.0801   245.5020 H6            1 RES     
   27678 H6        -377.8287   -96.3471   245.3052 H6            1 RES     
   27679 H6        -375.6685   -96.8510   244.8586 H6            1 RES     
   27680 H6        -375.5224   -95.3453   247.5498 H6            1 RES     
   27681 H6        -376.0237   -94.6960   245.9015 H6            1 RES     
   27682 H6        -373.2476   -95.4989   246.7653 H6            1 RES     
   27683 H6        -373.8023   -95.0286   245.0763 H6            1 RES     
   27684 H6        -372.7044   -93.2322   246.1124 H6            1 RES     
   27685 H6        -374.4385   -92.7644   246.0602 H6            1 RES     
   27686 H6        -373.0064   -94.0357   248.5056 H6            1 RES     
   27687 H6        -374.6158   -93.2421   248.5350 H6            1 RES     
   27688 H6        -371.8471   -91.9554   247.9269 H6            1 RES     
   27689 H6        -372.7026   -91.8794   249.5055 H6            1 RES     
   27690 H6        -372.9509   -89.7721   248.2458 H6            1 RES     
   27691 H6        -374.5176   -90.6052   248.5276 H6            1 RES     
   27692 H6        -373.7545   -90.6365   246.8835 H6            1 RES     
   27693 H6        -374.6522   -97.9800   247.5404 H6            1 RES     
   27694 H6        -375.2471   -98.9865   246.1660 H6            1 RES     
   27695 H6        -373.8492   -98.1030   244.5475 H6            1 RES     
   27696 H6        -372.9150   -97.0940   245.6163 H6            1 RES     
   27697 H6        -371.8609   -98.9621   244.7338 H6            1 RES     
   27698 H6        -372.7888  -100.1457   245.6673 H6            1 RES     
   27699 H6        -371.5602   -99.4193   247.7369 H6            1 RES     
   27700 H6        -371.0485   -97.8765   246.9540 H6            1 RES     
   27701 H6        -369.7071   -98.9772   245.2761 H6            1 RES     
   27702 H6        -370.1049  -100.6184   245.9080 H6            1 RES     
   27703 H6        -368.7933  -100.1677   247.9529 H6            1 RES     
   27704 H6        -368.5194   -98.4505   247.4516 H6            1 RES     
   27705 H6        -367.3193   -99.1676   245.4042 H6            1 RES     
   27706 H6        -367.5953  -100.9041   245.8012 H6            1 RES     
   27707 H6        -366.1872  -100.6795   247.8390 H6            1 RES     
   27708 H6        -365.9241   -98.9208   247.4758 H6            1 RES     
   27709 H6        -365.2983  -100.1830   246.3536 H6            1 RES     
   27710 C0        -386.9930   -95.0988   238.6521 C0            1 RES     
   27711 C1        -387.7215   -96.2422   238.8270 C1            1 RES     
   27712 C1        -388.3136   -96.3209   240.0353 C1            1 RES     
   27713 C1        -388.0024   -95.3108   240.7858 C1            1 RES     
   27714 C1        -387.0842   -94.4062   240.0719 C1            1 RES     
   27715 C1        -385.9241   -94.6191   241.0327 C1            1 RES     
   27716 C1        -386.2170   -95.1554   242.2532 C1            1 RES     
   27717 S2        -388.0085   -95.3461   242.5441 S2            1 RES     
   27718 C1        -385.1571   -95.6090   243.2486 C1            1 RES     
   27719 C1        -383.7980   -95.1962   243.1225 C1            1 RES     
   27720 N3        -382.8371   -95.6172   243.9953 N3            1 RES     
   27721 C1        -383.0963   -96.4627   245.0178 C1            1 RES     
   27722 C1        -384.3944   -96.9259   245.1921 C1            1 RES     
   27723 C1        -385.4331   -96.4944   244.3120 C1            1 RES     
   27724 N3        -386.6592   -97.0270   244.5777 N3            1 RES     
   27725 S2        -386.3648   -97.9902   245.8930 S2            1 RES     
   27726 N3        -384.7487   -97.7936   246.1710 N3            1 RES     
   27727 S2        -389.1018   -97.7724   240.3056 S2            1 RES     
   27728 C1        -388.6871   -98.3640   238.7741 C1            1 RES     
   27729 C1        -387.8943   -97.4298   238.0964 C1            1 RES     
   27730 C0        -387.6763   -94.2971   237.4419 C0            1 RES     
   27731 C0        -388.9754   -94.2533   236.4905 C0            1 RES     
   27732 C0        -389.3575   -95.5896   235.7793 C0            1 RES     
   27733 C0        -390.7914   -96.0225   236.1388 C0            1 RES     
   27734 C0        -391.1748   -97.4229   235.6275 C0            1 RES     
   27735 C0        -392.6569   -97.6968   235.9467 C0            1 RES     
   27736 C0        -393.0758   -99.1430   235.6543 C0            1 RES     
   27737 C0        -394.5627   -99.3434   235.9563 C0            1 RES     
   27738 C0        -388.6445   -93.1307   235.4093 C0            1 RES     
   27739 C0        -389.5475   -92.6698   234.2223 C0            1 RES     
   27740 C0        -389.5038   -93.5145   232.9120 C0            1 RES     
   27741 C0        -389.8032   -92.6389   231.6565 C0            1 RES     
   27742 C0        -389.6699   -93.4024   230.3224 C0            1 RES     
   27743 C0        -389.4596   -92.4890   229.0867 C0            1 RES     
   27744 C0        -390.5660   -91.4559   228.8282 C0            1 RES     
   27745 C0        -390.2654   -90.6476   227.5586 C0            1 RES     
   27746 C0        -385.5194   -95.3651   238.0769 C0            1 RES     
   27747 C0        -384.4478   -94.2522   237.5294 C0            1 RES     
   27748 C0        -384.9853   -93.4272   236.2919 C0            1 RES     
   27749 C0        -384.0075   -92.5918   235.4718 C0            1 RES     
   27750 C0        -384.5875   -91.9578   234.1947 C0            1 RES     
   27751 C0        -385.5412   -90.7797   234.4826 C0            1 RES     
   27752 C0        -385.6964   -89.8466   233.2680 C0            1 RES     
   27753 C0        -386.4030   -90.4880   232.0864 C0            1 RES     
   27754 C0        -383.6200   -93.3642   238.5660 C0            1 RES     
   27755 C0        -382.1699   -93.0497   238.0347 C0            1 RES     
   27756 C0        -381.0668   -92.3511   238.8767 C0            1 RES     
   27757 C0        -380.9924   -90.7890   238.8874 C0            1 RES     
   27758 C0        -379.4951   -90.3649   239.0022 C0            1 RES     
   27759 C0        -379.1808   -88.8531   239.0050 C0            1 RES     
   27760 C0        -377.6512   -88.6515   238.8619 C0            1 RES     
   27761 C0        -377.2192   -87.1867   238.9126 C0            1 RES     
   27762 H4        -384.9241   -94.4451   240.7328 H4            1 RES     
   27763 H5        -383.4949   -94.5178   242.3417 H5            1 RES     
   27764 H4        -387.4557   -97.6403   237.1339 H4            1 RES     
   27765 H6        -387.5861   -93.2440   237.7843 H6            1 RES     
   27766 H6        -387.0559   -94.5390   236.6026 H6            1 RES     
   27767 H6        -389.8426   -93.8988   237.0900 H6            1 RES     
   27768 H6        -389.2807   -95.5115   234.6800 H6            1 RES     
   27769 H6        -388.6348   -96.3652   236.0050 H6            1 RES     
   27770 H6        -390.8987   -96.0364   237.2459 H6            1 RES     
   27771 H6        -391.4906   -95.2657   235.7194 H6            1 RES     
   27772 H6        -391.0167   -97.5062   234.5296 H6            1 RES     
   27773 H6        -390.5306   -98.1721   236.1388 H6            1 RES     
   27774 H6        -393.2826   -96.9987   235.3465 H6            1 RES     
   27775 H6        -392.8437   -97.5022   237.0254 H6            1 RES     
   27776 H6        -392.8870   -99.3968   234.5893 H6            1 RES     
   27777 H6        -392.4848   -99.8311   236.2978 H6            1 RES     
   27778 H6        -394.7843   -99.0883   237.0153 H6            1 RES     
   27779 H6        -395.1802   -98.6984   235.2946 H6            1 RES     
   27780 H6        -394.8469  -100.4026   235.7828 H6            1 RES     
   27781 H6        -388.4915   -92.2094   236.0131 H6            1 RES     
   27782 H6        -387.6672   -93.3615   234.9296 H6            1 RES     
   27783 H6        -390.5821   -92.4195   234.5320 H6            1 RES     
   27784 H6        -389.0664   -91.7080   233.9349 H6            1 RES     
   27785 H6        -388.4664   -93.8933   232.7699 H6            1 RES     
   27786 H6        -390.1939   -94.3805   232.9730 H6            1 RES     
   27787 H6        -390.8030   -92.1601   231.7201 H6            1 RES     
   27788 H6        -389.0490   -91.8380   231.6307 H6            1 RES     
   27789 H6        -388.7613   -94.0424   230.3623 H6            1 RES     
   27790 H6        -390.5503   -94.0654   230.1848 H6            1 RES     
   27791 H6        -389.3671   -93.1434   228.1917 H6            1 RES     
   27792 H6        -388.4960   -91.9447   229.2058 H6            1 RES     
   27793 H6        -390.6282   -90.7515   229.6844 H6            1 RES     
   27794 H6        -391.5429   -91.9676   228.7040 H6            1 RES     
   27795 H6        -390.2257   -91.3156   226.6710 H6            1 RES     
   27796 H6        -389.2927   -90.1169   227.6488 H6            1 RES     
   27797 H6        -391.0613   -89.8911   227.3908 H6            1 RES     
   27798 H6        -384.9836   -95.9829   238.8304 H6            1 RES     
   27799 H6        -385.6446   -96.0470   237.2048 H6            1 RES     
   27800 H6        -383.6756   -94.9359   237.1148 H6            1 RES     
   27801 H6        -385.7784   -92.7298   236.6219 H6            1 RES     
   27802 H6        -385.3577   -94.1686   235.5529 H6            1 RES     
   27803 H6        -383.6513   -91.7363   236.0723 H6            1 RES     
   27804 H6        -383.1769   -93.2633   235.1641 H6            1 RES     
   27805 H6        -383.7073   -91.5420   233.6602 H6            1 RES     
   27806 H6        -385.0595   -92.7185   233.5336 H6            1 RES     
   27807 H6        -385.0890   -90.1471   235.2755 H6            1 RES     
   27808 H6        -386.5243   -91.1384   234.8536 H6            1 RES     
   27809 H6        -384.6912   -89.4976   232.9460 H6            1 RES     
   27810 H6        -386.2847   -88.9549   233.5753 H6            1 RES     
   27811 H6        -386.4631   -89.7595   231.2494 H6            1 RES     
   27812 H6        -387.4234   -90.7454   232.4042 H6            1 RES     
   27813 H6        -385.8709   -91.3930   231.7285 H6            1 RES     
   27814 H6        -384.1929   -92.4656   238.8838 H6            1 RES     
   27815 H6        -383.3951   -93.9814   239.4509 H6            1 RES     
   27816 H6        -381.7519   -94.0576   237.8235 H6            1 RES     
   27817 H6        -382.1264   -92.5247   237.0864 H6            1 RES     
   27818 H6        -380.1599   -92.6591   238.3091 H6            1 RES     
   27819 H6        -380.9442   -92.7836   239.8912 H6            1 RES     
   27820 H6        -381.6220   -90.3701   239.7023 H6            1 RES     
   27821 H6        -381.3535   -90.3808   237.9183 H6            1 RES     
   27822 H6        -378.9818   -90.7869   238.1086 H6            1 RES     
   27823 H6        -379.0419   -90.8175   239.9104 H6            1 RES     
   27824 H6        -379.5450   -88.3987   239.9516 H6            1 RES     
   27825 H6        -379.6795   -88.3513   238.1475 H6            1 RES     
   27826 H6        -377.3215   -89.0701   237.8842 H6            1 RES     
   27827 H6        -377.1174   -89.1957   239.6707 H6            1 RES     
   27828 H6        -377.4654   -86.7437   239.8998 H6            1 RES     
   27829 H6        -377.7073   -86.6002   238.1067 H6            1 RES     
   27830 H6        -376.1168   -87.1252   238.7690 H6            1 RES     
   27831 C0        -388.4307  -106.9588   235.4802 C0            1 RES     
   27832 C1        -388.6254  -107.4809   236.7286 C1            1 RES     
   27833 C1        -389.7507  -107.0393   237.3246 C1            1 RES     
   27834 C1        -390.3657  -106.1633   236.5933 C1            1 RES     
   27835 C1        -389.6201  -105.9241   235.3452 C1            1 RES     
   27836 C1        -389.3199  -104.4651   235.6546 C1            1 RES     
   27837 C1        -390.0749  -103.8656   236.6208 C1            1 RES     
   27838 S2        -391.4348  -104.9198   237.2288 S2            1 RES     
   27839 C1        -389.7772  -102.4814   237.1824 C1            1 RES     
   27840 C1        -388.9024  -101.5805   236.5065 C1            1 RES     
   27841 N3        -388.6107  -100.3480   237.0146 N3            1 RES     
   27842 C1        -389.1068   -99.9049   238.1914 C1            1 RES     
   27843 C1        -389.9499  -100.7356   238.9189 C1            1 RES     
   27844 C1        -390.2954  -102.0258   238.4131 C1            1 RES     
   27845 N3        -391.1187  -102.7503   239.2224 N3            1 RES     
   27846 S2        -391.3640  -101.7310   240.5051 S2            1 RES     
   27847 N3        -390.4776  -100.3919   240.1190 N3            1 RES     
   27848 S2        -389.9320  -107.5732   238.9005 S2            1 RES     
   27849 C1        -388.4853  -108.4514   238.8440 C1            1 RES     
   27850 C1        -387.8603  -108.2693   237.6044 C1            1 RES     
   27851 C0        -388.4620  -108.1923   234.4544 C0            1 RES     
   27852 C0        -388.8028  -109.7616   234.3298 C0            1 RES     
   27853 C0        -388.1410  -110.6995   235.3882 C0            1 RES     
   27854 C0        -389.2038  -111.4883   236.1763 C0            1 RES     
   27855 C0        -388.6419  -112.2927   237.3624 C0            1 RES     
   27856 C0        -389.7723  -113.1236   237.9992 C0            1 RES     
   27857 C0        -389.3525  -113.8024   239.3089 C0            1 RES     
   27858 C0        -390.5027  -114.6396   239.8731 C0            1 RES     
   27859 C0        -388.3227  -110.1623   232.8643 C0            1 RES     
   27860 C0        -388.3961  -111.5736   232.2013 C0            1 RES     
   27861 C0        -387.2509  -112.5824   232.5226 C0            1 RES     
   27862 C0        -387.0134  -113.5735   231.3420 C0            1 RES     
   27863 C0        -385.8210  -114.5272   231.5638 C0            1 RES     
   27864 C0        -385.2534  -115.1474   230.2605 C0            1 RES     
   27865 C0        -386.2490  -115.9663   229.4260 C0            1 RES     
   27866 C0        -385.5588  -116.5615   228.1911 C0            1 RES     
   27867 C0        -386.9502  -106.3840   235.2548 C0            1 RES     
   27868 C0        -386.2762  -105.8941   233.8434 C0            1 RES     
   27869 C0        -386.1974  -107.0432   232.7597 C0            1 RES     
   27870 C0        -385.3195  -106.8471   231.5279 C0            1 RES     
   27871 C0        -385.1758  -108.0778   230.6146 C0            1 RES     
   27872 C0        -386.4530  -108.3838   229.8052 C0            1 RES     
   27873 C0        -386.1611  -109.2391   228.5589 C0            1 RES     
   27874 C0        -385.6941  -110.6491   228.8764 C0            1 RES     
   27875 C0        -386.6605  -104.4727   233.2264 C0            1 RES     
   27876 C0        -385.4375  -103.8100   232.4856 C0            1 RES     
   27877 C0        -385.4404  -102.3609   231.9254 C0            1 RES     
   27878 C0        -385.9710  -102.1061   230.4765 C0            1 RES     
   27879 C0        -385.1515  -100.9368   229.8470 C0            1 RES     
   27880 C0        -385.4910  -100.5283   228.3972 C0            1 RES     
   27881 C0        -384.4088   -99.5483   227.8783 C0            1 RES     
   27882 C0        -384.6781   -99.0302   226.4663 C0            1 RES     
   27883 H4        -388.5014  -103.9660   235.2060 H4            1 RES     
   27884 H5        -388.4621  -101.8423   235.5581 H5            1 RES     
   27885 H4        -386.8863  -108.6781   237.3873 H4            1 RES     
   27886 H6        -388.9971  -107.7541   233.5849 H6            1 RES     
   27887 H6        -387.4248  -108.3916   234.2747 H6            1 RES     
   27888 H6        -389.9069  -109.8893   234.3696 H6            1 RES     
   27889 H6        -387.4424  -111.4194   234.9256 H6            1 RES     
   27890 H6        -387.4884  -110.1368   236.0455 H6            1 RES     
   27891 H6        -389.9522  -110.7758   236.5879 H6            1 RES     
   27892 H6        -389.7144  -112.1751   235.4656 H6            1 RES     
   27893 H6        -387.8278  -112.9758   237.0339 H6            1 RES     
   27894 H6        -388.2289  -111.5775   238.1077 H6            1 RES     
   27895 H6        -390.0990  -113.8957   237.2670 H6            1 RES     
   27896 H6        -390.6358  -112.4600   238.2239 H6            1 RES     
   27897 H6        -388.4741  -114.4622   239.1431 H6            1 RES     
   27898 H6        -389.0802  -113.0221   240.0532 H6            1 RES     
   27899 H6        -391.4007  -114.0065   240.0418 H6            1 RES     
   27900 H6        -390.7664  -115.4565   239.1673 H6            1 RES     
   27901 H6        -390.2044  -115.0922   240.8421 H6            1 RES     
   27902 H6        -388.9257  -109.5111   232.1940 H6            1 RES     
   27903 H6        -387.2607  -109.8578   232.7311 H6            1 RES     
   27904 H6        -389.4012  -112.0364   232.2689 H6            1 RES     
   27905 H6        -388.2384  -111.3254   231.1276 H6            1 RES     
   27906 H6        -386.2992  -112.0144   232.6302 H6            1 RES     
   27907 H6        -387.4512  -113.1241   233.4693 H6            1 RES     
   27908 H6        -387.9277  -114.1589   231.1085 H6            1 RES     
   27909 H6        -386.7659  -112.9706   230.4554 H6            1 RES     
   27910 H6        -384.9746  -113.9513   231.9981 H6            1 RES     
   27911 H6        -386.1074  -115.3164   232.2909 H6            1 RES     
   27912 H6        -384.3988  -115.8028   230.5397 H6            1 RES     
   27913 H6        -384.8537  -114.3287   229.6209 H6            1 RES     
   27914 H6        -387.0770  -115.3112   229.0819 H6            1 RES     
   27915 H6        -386.6669  -116.7937   230.0362 H6            1 RES     
   27916 H6        -384.7406  -117.2498   228.4952 H6            1 RES     
   27917 H6        -385.1300  -115.7587   227.5525 H6            1 RES     
   27918 H6        -386.2911  -117.1359   227.5847 H6            1 RES     
   27919 H6        -386.8098  -105.5546   235.9823 H6            1 RES     
   27920 H6        -386.2517  -107.1769   235.6076 H6            1 RES     
   27921 H6        -385.2303  -105.7416   234.1877 H6            1 RES     
   27922 H6        -387.2110  -107.2686   232.3777 H6            1 RES     
   27923 H6        -385.7313  -107.9197   233.2588 H6            1 RES     
   27924 H6        -385.7541  -106.0661   230.8794 H6            1 RES     
   27925 H6        -384.3029  -106.5766   231.8868 H6            1 RES     
   27926 H6        -384.3863  -107.7982   229.8851 H6            1 RES     
   27927 H6        -384.8199  -108.9699   231.1766 H6            1 RES     
   27928 H6        -386.8564  -107.4276   229.4099 H6            1 RES     
   27929 H6        -387.2352  -108.8438   230.4452 H6            1 RES     
   27930 H6        -385.3900  -108.7303   227.9405 H6            1 RES     
   27931 H6        -387.0893  -109.3149   227.9520 H6            1 RES     
   27932 H6        -385.4916  -111.1953   227.9301 H6            1 RES     
   27933 H6        -386.5070  -111.1599   229.4119 H6            1 RES     
   27934 H6        -384.7691  -110.6497   229.4886 H6            1 RES     
   27935 H6        -387.5870  -104.5297   232.6140 H6            1 RES     
   27936 H6        -386.8182  -103.7646   234.0560 H6            1 RES     
   27937 H6        -384.6443  -103.7980   233.2639 H6            1 RES     
   27938 H6        -385.0194  -104.3895   231.6693 H6            1 RES     
   27939 H6        -384.3452  -102.1772   231.8463 H6            1 RES     
   27940 H6        -385.8171  -101.6079   232.6482 H6            1 RES     
   27941 H6        -387.0649  -101.9082   230.4866 H6            1 RES     
   27942 H6        -385.7798  -102.9945   229.8359 H6            1 RES     
   27943 H6        -384.0894  -101.2715   229.8345 H6            1 RES     
   27944 H6        -385.2246  -100.0338   230.4905 H6            1 RES     
   27945 H6        -386.4933  -100.0489   228.3703 H6            1 RES     
   27946 H6        -385.4989  -101.4206   227.7340 H6            1 RES     
   27947 H6        -383.4247  -100.0692   227.8680 H6            1 RES     
   27948 H6        -384.3309   -98.6718   228.5573 H6            1 RES     
   27949 H6        -385.6186   -98.4418   226.4419 H6            1 RES     
   27950 H6        -384.7415   -99.8678   225.7409 H6            1 RES     
   27951 H6        -383.8424   -98.3632   226.1557 H6            1 RES     
   27952 C0        -383.1178  -111.6970   245.5852 C0            1 RES     
   27953 C1        -383.8265  -111.0080   246.5295 C1            1 RES     
   27954 C1        -385.1411  -111.3055   246.5358 C1            1 RES     
   27955 C1        -385.4456  -112.1414   245.5929 C1            1 RES     
   27956 C1        -384.2478  -112.4851   244.8069 C1            1 RES     
   27957 C1        -384.7656  -111.8746   243.5133 C1            1 RES     
   27958 C1        -386.1065  -111.6330   243.4320 C1            1 RES     
   27959 S2        -387.0408  -112.2715   244.8638 S2            1 RES     
   27960 C1        -386.7531  -110.8540   242.2940 C1            1 RES     
   27961 C1        -386.0597  -110.6180   241.0705 C1            1 RES     
   27962 N3        -386.6218  -109.9003   240.0550 N3            1 RES     
   27963 C1        -387.8532  -109.3494   240.1418 C1            1 RES     
   27964 C1        -388.5819  -109.5179   241.3125 C1            1 RES     
   27965 C1        -388.0376  -110.2784   242.3919 C1            1 RES     
   27966 N3        -388.8418  -110.3616   243.4892 N3            1 RES     
   27967 S2        -390.1754  -109.4899   243.0350 S2            1 RES     
   27968 N3        -389.8130  -108.9848   241.5048 N3            1 RES     
   27969 S2        -386.0368  -110.3755   247.6007 S2            1 RES     
   27970 C1        -384.6675  -109.5264   248.1215 C1            1 RES     
   27971 C1        -383.5380  -109.9546   247.4133 C1            1 RES     
   27972 C0        -382.0561  -112.6037   246.3759 C0            1 RES     
   27973 C0        -381.6391  -113.1245   247.8420 C0            1 RES     
   27974 C0        -381.4796  -112.0313   248.9452 C0            1 RES     
   27975 C0        -382.4146  -112.3030   250.1389 C0            1 RES     
   27976 C0        -382.4523  -111.1711   251.1814 C0            1 RES     
   27977 C0        -383.3261  -111.6026   252.3746 C0            1 RES     
   27978 C0        -383.5853  -110.4650   253.3702 C0            1 RES     
   27979 C0        -384.4262  -110.9627   254.5481 C0            1 RES     
   27980 C0        -380.2576  -113.8868   247.6202 C0            1 RES     
   27981 C0        -379.3821  -114.5864   248.7068 C0            1 RES     
   27982 C0        -378.4069  -113.6929   249.5332 C0            1 RES     
   27983 C0        -377.1517  -114.4938   249.9979 C0            1 RES     
   27984 C0        -376.1028  -113.6317   250.7306 C0            1 RES     
   27985 C0        -374.6786  -114.2455   250.7503 C0            1 RES     
   27986 C0        -374.5608  -115.6300   251.4039 C0            1 RES     
   27987 C0        -373.1021  -116.1072   251.4011 C0            1 RES     
   27988 C0        -382.1571  -110.7628   244.7035 C0            1 RES     
   27989 C0        -381.0015  -111.2409   243.6440 C0            1 RES     
   27990 C0        -379.8585  -112.1022   244.3168 C0            1 RES     
   27991 C0        -378.5623  -112.3483   243.5515 C0            1 RES     
   27992 C0        -377.4482  -113.0537   244.3457 C0            1 RES     
   27993 C0        -377.7318  -114.5508   244.5878 C0            1 RES     
   27994 C0        -376.4485  -115.3438   244.8947 C0            1 RES     
   27995 C0        -375.7968  -114.9717   246.2152 C0            1 RES     
   27996 C0        -381.4161  -111.7676   242.1951 C0            1 RES     
   27997 C0        -380.3517  -111.3673   241.1038 C0            1 RES     
   27998 C0        -380.5447  -111.5866   239.5780 C0            1 RES     
   27999 C0        -380.1213  -112.9530   238.9459 C0            1 RES     
   28000 C0        -379.5939  -112.6886   237.5012 C0            1 RES     
   28001 C0        -379.0931  -113.9044   236.6918 C0            1 RES     
   28002 C0        -378.3802  -113.4035   235.4105 C0            1 RES     
   28003 C0        -377.8939  -114.5301   234.5000 C0            1 RES     
   28004 H4        -384.1027  -111.5661   242.7480 H4            1 RES     
   28005 H5        -385.0742  -111.0221   240.9051 H5            1 RES     
   28006 H4        -382.5736  -109.4876   247.5346 H4            1 RES     
   28007 H6        -382.0586  -113.5376   245.7741 H6            1 RES     
   28008 H6        -381.1476  -112.0402   246.3053 H6            1 RES     
   28009 H6        -382.3880  -113.8749   248.1784 H6            1 RES     
   28010 H6        -380.4424  -111.9682   249.3202 H6            1 RES     
   28011 H6        -381.6340  -111.0418   248.5307 H6            1 RES     
   28012 H6        -383.4526  -112.4376   249.7626 H6            1 RES     
   28013 H6        -382.0824  -113.2479   250.6230 H6            1 RES     
   28014 H6        -381.4301  -110.9282   251.5469 H6            1 RES     
   28015 H6        -382.8842  -110.2654   250.7011 H6            1 RES     
   28016 H6        -382.8209  -112.4464   252.8959 H6            1 RES     
   28017 H6        -384.3119  -111.9559   252.0008 H6            1 RES     
   28018 H6        -382.6265  -110.0589   253.7579 H6            1 RES     
   28019 H6        -384.1390  -109.6491   252.8557 H6            1 RES     
   28020 H6        -385.3905  -111.3835   254.1896 H6            1 RES     
   28021 H6        -383.8766  -111.7498   255.1079 H6            1 RES     
   28022 H6        -384.6448  -110.1233   255.2412 H6            1 RES     
   28023 H6        -380.5082  -114.6990   246.9031 H6            1 RES     
   28024 H6        -379.5461  -113.2098   247.0969 H6            1 RES     
   28025 H6        -379.9552  -115.2906   249.3429 H6            1 RES     
   28026 H6        -378.7053  -115.2110   248.0814 H6            1 RES     
   28027 H6        -378.0172  -112.8878   248.8701 H6            1 RES     
   28028 H6        -378.9273  -113.2251   250.3934 H6            1 RES     
   28029 H6        -377.4316  -115.3650   250.6269 H6            1 RES     
   28030 H6        -376.6577  -114.8786   249.0931 H6            1 RES     
   28031 H6        -375.9899  -112.6655   250.1916 H6            1 RES     
   28032 H6        -376.4576  -113.4106   251.7596 H6            1 RES     
   28033 H6        -374.0108  -113.5384   251.2908 H6            1 RES     
   28034 H6        -374.3091  -114.3222   249.7031 H6            1 RES     
   28035 H6        -375.1700  -116.3650   250.8365 H6            1 RES     
   28036 H6        -374.9218  -115.5878   252.4524 H6            1 RES     
   28037 H6        -372.4629  -115.4118   251.9872 H6            1 RES     
   28038 H6        -372.7070  -116.1652   250.3635 H6            1 RES     
   28039 H6        -373.0303  -117.1169   251.8586 H6            1 RES     
   28040 H6        -382.8107  -110.0439   244.1625 H6            1 RES     
   28041 H6        -381.5928  -110.1284   245.4248 H6            1 RES     
   28042 H6        -380.5380  -110.2542   243.4271 H6            1 RES     
   28043 H6        -380.2495  -113.1027   244.5820 H6            1 RES     
   28044 H6        -379.5155  -111.5347   245.2083 H6            1 RES     
   28045 H6        -378.7564  -113.0125   242.6909 H6            1 RES     
   28046 H6        -378.1716  -111.3566   243.2363 H6            1 RES     
   28047 H6        -376.5525  -112.9928   243.6918 H6            1 RES     
   28048 H6        -377.2151  -112.5194   245.2936 H6            1 RES     
   28049 H6        -378.1240  -114.9910   243.6466 H6            1 RES     
   28050 H6        -378.5011  -114.6929   245.3758 H6            1 RES     
   28051 H6        -375.7182  -115.1877   244.0711 H6            1 RES     
   28052 H6        -376.6971  -116.4266   244.9292 H6            1 RES     
   28053 H6        -374.8738  -115.5742   246.3568 H6            1 RES     
   28054 H6        -376.5047  -115.2160   247.0200 H6            1 RES     
   28055 H6        -375.5255  -113.8969   246.2535 H6            1 RES     
   28056 H6        -381.6671  -112.8509   242.2100 H6            1 RES     
   28057 H6        -382.2959  -111.1970   241.8561 H6            1 RES     
   28058 H6        -380.2789  -110.2636   241.2119 H6            1 RES     
   28059 H6        -379.3455  -111.7323   241.2805 H6            1 RES     
   28060 H6        -379.7987  -110.8634   239.1782 H6            1 RES     
   28061 H6        -381.5286  -111.2377   239.2019 H6            1 RES     
   28062 H6        -380.9648  -113.6767   238.9703 H6            1 RES     
   28063 H6        -379.2674  -113.3885   239.5094 H6            1 RES     
   28064 H6        -378.7206  -112.0058   237.6079 H6            1 RES     
   28065 H6        -380.3725  -112.1677   236.9034 H6            1 RES     
   28066 H6        -379.9538  -114.5558   236.4272 H6            1 RES     
   28067 H6        -378.3632  -114.4939   237.2881 H6            1 RES     
   28068 H6        -377.4941  -112.7963   235.7040 H6            1 RES     
   28069 H6        -379.0651  -112.7563   234.8211 H6            1 RES     
   28070 H6        -378.7532  -115.1234   234.1245 H6            1 RES     
   28071 H6        -377.1847  -115.1954   235.0350 H6            1 RES     
   28072 H6        -377.3655  -114.0904   233.6241 H6            1 RES     
   28073 C0        -383.8521  -101.4248   252.4212 C0            1 RES     
   28074 C1        -385.1802  -101.1556   252.2414 C1            1 RES     
   28075 C1        -385.9930  -102.0965   252.7618 C1            1 RES     
   28076 C1        -385.3196  -103.0831   253.2656 C1            1 RES     
   28077 C1        -383.8740  -102.8584   253.0906 C1            1 RES     
   28078 C1        -383.6681  -104.0608   252.1816 C1            1 RES     
   28079 C1        -384.6443  -105.0147   252.1804 C1            1 RES     
   28080 S2        -385.9393  -104.7205   253.4321 S2            1 RES     
   28081 C1        -384.6859  -106.1741   251.1935 C1            1 RES     
   28082 C1        -383.5383  -106.5369   250.4285 C1            1 RES     
   28083 N3        -383.5733  -107.5584   249.5243 N3            1 RES     
   28084 C1        -384.6901  -108.2781   249.2753 C1            1 RES     
   28085 C1        -385.8549  -107.9690   249.9667 C1            1 RES     
   28086 C1        -385.8557  -106.9196   250.9354 C1            1 RES     
   28087 N3        -387.0596  -106.7042   251.5371 N3            1 RES     
   28088 S2        -388.0345  -107.8396   250.8264 S2            1 RES     
   28089 N3        -387.0296  -108.6156   249.7701 N3            1 RES     
   28090 S2        -387.6146  -101.8404   252.4361 S2            1 RES     
   28091 C1        -387.2901  -100.4172   251.5780 C1            1 RES     
   28092 C1        -385.9088  -100.1950   251.5202 C1            1 RES     
   28093 C0        -383.2605  -100.2420   253.3297 C0            1 RES     
   28094 C0        -383.6758   -98.9752   254.2338 C0            1 RES     
   28095 C0        -384.6437   -97.9424   253.5748 C0            1 RES     
   28096 C0        -385.9285   -97.7722   254.4074 C0            1 RES     
   28097 C0        -387.0113   -96.9140   253.7287 C0            1 RES     
   28098 C0        -388.1942   -96.7221   254.6969 C0            1 RES     
   28099 C0        -389.4050   -96.0496   254.0380 C0            1 RES     
   28100 C0        -390.5311   -95.8540   255.0558 C0            1 RES     
   28101 C0        -382.2934   -98.2743   254.6033 C0            1 RES     
   28102 C0        -382.0896   -96.9834   255.4570 C0            1 RES     
   28103 C0        -382.2442   -95.6093   254.7357 C0            1 RES     
   28104 C0        -381.3566   -94.5117   255.3992 C0            1 RES     
   28105 C0        -381.3907   -93.1573   254.6611 C0            1 RES     
   28106 C0        -380.1812   -92.2364   254.9686 C0            1 RES     
   28107 C0        -379.9890   -91.8631   256.4457 C0            1 RES     
   28108 C0        -378.7920   -90.9172   256.6133 C0            1 RES     
   28109 C0        -382.9848  -101.2720   251.0805 C0            1 RES     
   28110 C0        -381.3515  -101.2882   250.9435 C0            1 RES     
   28111 C0        -380.6477  -100.1274   251.7547 C0            1 RES     
   28112 C0        -379.1820   -99.8078   251.4787 C0            1 RES     
   28113 C0        -378.6302   -98.5611   252.1932 C0            1 RES     
   28114 C0        -378.4247   -98.7721   253.7076 C0            1 RES     
   28115 C0        -377.4237   -97.7665   254.3047 C0            1 RES     
   28116 C0        -377.9150   -96.3293   254.2930 C0            1 RES     
   28117 C0        -380.5589  -102.6723   251.0097 C0            1 RES     
   28118 C0        -379.2938  -102.6640   250.0697 C0            1 RES     
   28119 C0        -378.4125  -103.9114   249.7853 C0            1 RES     
   28120 C0        -377.2253  -104.2402   250.7488 C0            1 RES     
   28121 C0        -376.0688  -104.8716   249.9127 C0            1 RES     
   28122 C0        -374.7744  -105.2544   250.6624 C0            1 RES     
   28123 C0        -373.6755  -105.6115   249.6301 C0            1 RES     
   28124 C0        -372.3622  -106.0652   250.2657 C0            1 RES     
   28125 H4        -382.8495  -104.1092   251.5124 H4            1 RES     
   28126 H5        -382.5993  -106.0245   250.5610 H5            1 RES     
   28127 H4        -385.4814   -99.3838   250.9523 H4            1 RES     
   28128 H6        -382.5491  -100.7893   253.9844 H6            1 RES     
   28129 H6        -382.7902   -99.5941   252.6178 H6            1 RES     
   28130 H6        -384.1286   -99.3470   255.1792 H6            1 RES     
   28131 H6        -384.1720   -96.9510   253.4524 H6            1 RES     
   28132 H6        -384.8623   -98.2203   252.5503 H6            1 RES     
   28133 H6        -386.3735   -98.7741   254.5954 H6            1 RES     
   28134 H6        -385.6447   -97.3164   255.3817 H6            1 RES     
   28135 H6        -386.6106   -95.9173   253.4402 H6            1 RES     
   28136 H6        -387.3527   -97.4410   252.8103 H6            1 RES     
   28137 H6        -387.8495   -96.1076   255.5586 H6            1 RES     
   28138 H6        -388.5236   -97.7135   255.0774 H6            1 RES     
   28139 H6        -389.1224   -95.0603   253.6186 H6            1 RES     
   28140 H6        -389.7774   -96.6962   253.2133 H6            1 RES     
   28141 H6        -390.8300   -96.8282   255.4999 H6            1 RES     
   28142 H6        -390.2000   -95.1744   255.8703 H6            1 RES     
   28143 H6        -391.4183   -95.4063   254.5605 H6            1 RES     
   28144 H6        -381.7294   -99.0599   255.1525 H6            1 RES     
   28145 H6        -381.7251   -98.0706   253.6684 H6            1 RES     
   28146 H6        -382.6204   -97.0145   256.4297 H6            1 RES     
   28147 H6        -381.0031   -97.0395   255.6924 H6            1 RES     
   28148 H6        -381.8623   -95.7114   253.6948 H6            1 RES     
   28149 H6        -383.3077   -95.2976   254.6959 H6            1 RES     
   28150 H6        -381.6165   -94.3663   256.4690 H6            1 RES     
   28151 H6        -380.3149   -94.8630   255.3522 H6            1 RES     
   28152 H6        -381.3377   -93.3420   253.5658 H6            1 RES     
   28153 H6        -382.3509   -92.6419   254.8757 H6            1 RES     
   28154 H6        -380.3066   -91.3016   254.3784 H6            1 RES     
   28155 H6        -379.2528   -92.7365   254.6122 H6            1 RES     
   28156 H6        -379.7959   -92.7801   257.0416 H6            1 RES     
   28157 H6        -380.8995   -91.3605   256.8328 H6            1 RES     
   28158 H6        -378.9611   -89.9712   256.0546 H6            1 RES     
   28159 H6        -377.8585   -91.3904   256.2382 H6            1 RES     
   28160 H6        -378.6500   -90.6683   257.6865 H6            1 RES     
   28161 H6        -383.3750  -102.0186   250.3546 H6            1 RES     
   28162 H6        -383.2665  -100.2891   250.6382 H6            1 RES     
   28163 H6        -381.2585  -100.9987   249.8743 H6            1 RES     
   28164 H6        -380.7145  -100.3340   252.8396 H6            1 RES     
   28165 H6        -381.1637   -99.1845   251.4734 H6            1 RES     
   28166 H6        -378.5453  -100.6380   251.8319 H6            1 RES     
   28167 H6        -379.0815   -99.6381   250.3848 H6            1 RES     
   28168 H6        -377.6260   -98.4003   251.7469 H6            1 RES     
   28169 H6        -379.2453   -97.6580   251.9823 H6            1 RES     
   28170 H6        -377.9596   -99.7685   253.8638 H6            1 RES     
   28171 H6        -379.3929   -98.7602   254.2512 H6            1 RES     
   28172 H6        -376.4661   -97.8289   253.7434 H6            1 RES     
   28173 H6        -377.2193   -98.0494   255.3600 H6            1 RES     
   28174 H6        -377.1346   -95.6664   254.7249 H6            1 RES     
   28175 H6        -378.8129   -96.2759   254.9249 H6            1 RES     
   28176 H6        -378.1452   -95.9799   253.2657 H6            1 RES     
   28177 H6        -380.3440  -102.9709   252.0592 H6            1 RES     
   28178 H6        -381.1763  -103.4499   250.5315 H6            1 RES     
   28179 H6        -379.7162  -102.3985   249.0766 H6            1 RES     
   28180 H6        -378.5644  -101.8889   250.2795 H6            1 RES     
   28181 H6        -377.9129  -103.5900   248.8437 H6            1 RES     
   28182 H6        -378.9982  -104.8152   249.5179 H6            1 RES     
   28183 H6        -377.5629  -104.8962   251.5804 H6            1 RES     
   28184 H6        -376.8135  -103.3037   251.1841 H6            1 RES     
   28185 H6        -375.7758  -104.1068   249.1581 H6            1 RES     
   28186 H6        -376.4384  -105.7698   249.3730 H6            1 RES     
   28187 H6        -374.9734  -106.1190   251.3318 H6            1 RES     
   28188 H6        -374.4124  -104.3994   251.2739 H6            1 RES     
   28189 H6        -373.4601  -104.7144   249.0067 H6            1 RES     
   28190 H6        -374.0315  -106.4233   248.9595 H6            1 RES     
   28191 H6        -372.5136  -107.0005   250.8433 H6            1 RES     
   28192 H6        -371.9492  -105.2777   250.9299 H6            1 RES     
   28193 H6        -371.6181  -106.2688   249.4628 H6            1 RES     
   28194 C0        -392.3432   -95.7768   245.4363 C0            1 RES     
   28195 C1        -393.2604   -96.7885   245.3736 C1            1 RES     
   28196 C1        -393.8004   -97.0973   246.5693 C1            1 RES     
   28197 C1        -393.2748   -96.3970   247.5253 C1            1 RES     
   28198 C1        -392.2402   -95.4949   246.9899 C1            1 RES     
   28199 C1        -391.0958   -96.1506   247.7480 C1            1 RES     
   28200 C1        -391.4255   -96.9454   248.8075 C1            1 RES     
   28201 S2        -393.2062   -96.9117   249.2056 S2            1 RES     
   28202 C1        -390.4220   -97.8222   249.5453 C1            1 RES     
   28203 C1        -389.0175   -97.6197   249.4044 C1            1 RES     
   28204 N3        -388.1110   -98.4157   250.0422 N3            1 RES     
   28205 C1        -388.4734   -99.4547   250.8274 C1            1 RES     
   28206 C1        -389.8251   -99.7283   250.9957 C1            1 RES     
   28207 C1        -390.8065   -98.9075   250.3609 C1            1 RES     
   28208 N3        -392.0959   -99.2837   250.5921 N3            1 RES     
   28209 S2        -391.9229  -100.6055   251.5757 S2            1 RES     
   28210 N3        -390.2871  -100.7608   251.7422 N3            1 RES     
   28211 S2        -394.8283   -98.4173   246.5232 S2            1 RES     
   28212 C1        -394.6003   -98.6259   244.8583 C1            1 RES     
   28213 C1        -393.6816   -97.6851   244.3772 C1            1 RES     
   28214 C0        -392.9229   -94.5729   244.5479 C0            1 RES     
   28215 C0        -394.2344   -94.0572   243.7678 C0            1 RES     
   28216 C0        -394.8876   -95.0657   242.7708 C0            1 RES     
   28217 C0        -396.3585   -95.3390   243.1377 C0            1 RES     
   28218 C0        -397.0156   -96.4627   242.3161 C0            1 RES     
   28219 C0        -398.5064   -96.5664   242.6905 C0            1 RES     
   28220 C0        -399.1967   -97.7877   242.0704 C0            1 RES     
   28221 C0        -400.6796   -97.8163   242.4479 C0            1 RES     
   28222 C0        -393.7533   -92.7513   242.9919 C0            1 RES     
   28223 C0        -394.6102   -91.8409   242.0573 C0            1 RES     
   28224 C0        -394.7828   -92.2890   240.5735 C0            1 RES     
   28225 C0        -394.9740   -91.0659   239.6248 C0            1 RES     
   28226 C0        -395.0448   -91.4453   238.1310 C0            1 RES     
   28227 C0        -394.7277   -90.2754   237.1634 C0            1 RES     
   28228 C0        -395.6365   -89.0440   237.2894 C0            1 RES     
   28229 C0        -395.2515   -87.9792   236.2532 C0            1 RES     
   28230 C0        -390.9717   -96.1132   244.6755 C0            1 RES     
   28231 C0        -389.7405   -95.0846   244.3401 C0            1 RES     
   28232 C0        -390.1739   -93.8752   243.4179 C0            1 RES     
   28233 C0        -389.0984   -93.0193   242.7568 C0            1 RES     
   28234 C0        -389.6105   -91.9730   241.7506 C0            1 RES     
   28235 C0        -390.3174   -90.7791   242.4252 C0            1 RES     
   28236 C0        -390.3546   -89.5364   241.5174 C0            1 RES     
   28237 C0        -391.2207   -89.7040   240.2809 C0            1 RES     
   28238 C0        -388.7168   -94.6634   245.4904 C0            1 RES     
   28239 C0        -387.2597   -94.4578   244.9259 C0            1 RES     
   28240 C0        -386.0095   -94.2079   245.8138 C0            1 RES     
   28241 C0        -385.6493   -92.7429   246.2259 C0            1 RES     
   28242 C0        -384.0958   -92.6184   246.3064 C0            1 RES     
   28243 C0        -383.5097   -91.2383   246.6751 C0            1 RES     
   28244 C0        -381.9773   -91.2592   246.4466 C0            1 RES     
   28245 C0        -381.2819   -89.9561   246.8380 C0            1 RES     
   28246 H4        -390.0957   -96.0677   247.4115 H4            1 RES     
   28247 H5        -388.6315   -96.8125   248.8034 H5            1 RES     
   28248 H4        -393.3340   -97.6925   243.3564 H4            1 RES     
   28249 H6        -392.6252   -93.6839   245.1440 H6            1 RES     
   28250 H6        -392.3968   -94.6739   243.6201 H6            1 RES     
   28251 H6        -394.9932   -93.7434   244.5180 H6            1 RES     
   28252 H6        -394.8486   -94.7028   241.7281 H6            1 RES     
   28253 H6        -394.3099   -95.9811   242.7166 H6            1 RES     
   28254 H6        -396.4153   -95.6381   244.2075 H6            1 RES     
   28255 H6        -396.9255   -94.3920   242.9987 H6            1 RES     
   28256 H6        -396.9263   -96.2664   241.2249 H6            1 RES     
   28257 H6        -396.4969   -97.4186   242.5505 H6            1 RES     
   28258 H6        -399.0204   -95.6376   242.3554 H6            1 RES     
   28259 H6        -398.6043   -96.6472   243.7951 H6            1 RES     
   28260 H6        -399.1069   -97.7672   240.9632 H6            1 RES     
   28261 H6        -398.7129   -98.7133   242.4529 H6            1 RES     
   28262 H6        -400.8014   -97.8287   243.5528 H6            1 RES     
   28263 H6        -401.1980   -96.9223   242.0392 H6            1 RES     
   28264 H6        -401.1610   -98.7257   242.0308 H6            1 RES     
   28265 H6        -393.4061   -92.0691   243.7987 H6            1 RES     
   28266 H6        -392.8582   -92.9989   242.3788 H6            1 RES     
   28267 H6        -395.5659   -91.5187   242.5175 H6            1 RES     
   28268 H6        -393.9745   -90.9297   241.9877 H6            1 RES     
   28269 H6        -393.8402   -92.7794   240.2403 H6            1 RES     
   28270 H6        -395.6165   -93.0130   240.4704 H6            1 RES     
   28271 H6        -395.8650   -90.4654   239.9053 H6            1 RES     
   28272 H6        -394.0877   -90.4238   239.7387 H6            1 RES     
   28273 H6        -394.2683   -92.2118   237.9164 H6            1 RES     
   28274 H6        -396.0373   -91.8912   237.9081 H6            1 RES     
   28275 H6        -394.7983   -90.6652   236.1237 H6            1 RES     
   28276 H6        -393.6761   -89.9506   237.3296 H6            1 RES     
   28277 H6        -395.5287   -88.6012   238.3021 H6            1 RES     
   28278 H6        -396.6954   -89.3343   237.1282 H6            1 RES     
   28279 H6        -395.3761   -88.3753   235.2221 H6            1 RES     
   28280 H6        -394.1948   -87.6609   236.3873 H6            1 RES     
   28281 H6        -395.9019   -87.0857   236.3650 H6            1 RES     
   28282 H6        -390.5241   -96.9933   245.1872 H6            1 RES     
   28283 H6        -391.2600   -96.4996   243.6712 H6            1 RES     
   28284 H6        -389.1268   -95.7455   243.6903 H6            1 RES     
   28285 H6        -390.8095   -93.1747   243.9920 H6            1 RES     
   28286 H6        -390.7098   -94.3138   242.5490 H6            1 RES     
   28287 H6        -388.5638   -92.4319   243.5241 H6            1 RES     
   28288 H6        -388.4202   -93.7076   242.2074 H6            1 RES     
   28289 H6        -388.6945   -91.5770   241.2632 H6            1 RES     
   28290 H6        -390.2440   -92.4350   240.9609 H6            1 RES     
   28291 H6        -389.7207   -90.4714   243.3099 H6            1 RES     
   28292 H6        -391.3315   -91.0593   242.7801 H6            1 RES     
   28293 H6        -389.3184   -89.2824   241.2048 H6            1 RES     
   28294 H6        -390.7544   -88.6791   242.1012 H6            1 RES     
   28295 H6        -391.1846   -88.7743   239.6732 H6            1 RES     
   28296 H6        -392.2552   -89.8675   240.6148 H6            1 RES     
   28297 H6        -390.8807   -90.5508   239.6502 H6            1 RES     
   28298 H6        -389.0998   -93.8050   246.0847 H6            1 RES     
   28299 H6        -388.5684   -95.5278   246.1576 H6            1 RES     
   28300 H6        -387.0440   -95.4235   244.4199 H6            1 RES     
   28301 H6        -387.1644   -93.7074   244.1483 H6            1 RES     
   28302 H6        -385.2017   -94.4930   245.1027 H6            1 RES     
   28303 H6        -385.9216   -94.9161   246.6635 H6            1 RES     
   28304 H6        -386.1530   -92.4661   247.1775 H6            1 RES     
   28305 H6        -385.9737   -92.0310   245.4358 H6            1 RES     
   28306 H6        -383.7105   -92.8575   245.2893 H6            1 RES     
   28307 H6        -383.6920   -93.3707   247.0177 H6            1 RES     
   28308 H6        -383.7402   -91.0075   247.7376 H6            1 RES     
   28309 H6        -383.9468   -90.4457   246.0297 H6            1 RES     
   28310 H6        -381.7755   -91.4419   245.3669 H6            1 RES     
   28311 H6        -381.5157   -92.0843   247.0309 H6            1 RES     
   28312 H6        -381.3969   -89.7667   247.9254 H6            1 RES     
   28313 H6        -381.6908   -89.0992   246.2634 H6            1 RES     
   28314 H6        -380.1948   -90.0394   246.6125 H6            1 RES     
   28315 C0        -396.0779  -105.9086   239.4207 C0            1 RES     
   28316 C1        -396.3072  -106.7136   240.5015 C1            1 RES     
   28317 C1        -397.3037  -106.2738   241.2955 C1            1 RES     
   28318 C1        -397.7806  -105.1423   240.8801 C1            1 RES     
   28319 C1        -397.0621  -104.6957   239.6738 C1            1 RES     
   28320 C1        -396.4853  -103.4475   240.3246 C1            1 RES     
   28321 C1        -397.0721  -103.0204   241.4806 C1            1 RES     
   28322 S2        -398.5728  -103.9628   241.9166 S2            1 RES     
   28323 C1        -396.4998  -101.9117   242.3542 C1            1 RES     
   28324 C1        -395.5066  -101.0164   241.8586 C1            1 RES     
   28325 N3        -394.9706  -100.0358   242.6417 N3            1 RES     
   28326 C1        -395.3221   -99.8572   243.9348 C1            1 RES     
   28327 C1        -396.2688  -100.7054   244.4954 C1            1 RES     
   28328 C1        -396.8682  -101.7325   243.7045 C1            1 RES     
   28329 N3        -397.7722  -102.5057   244.3696 N3            1 RES     
   28330 S2        -397.7669  -101.8514   245.8916 S2            1 RES     
   28331 N3        -396.6686  -100.6223   245.7877 N3            1 RES     
   28332 S2        -397.5069  -107.1822   242.6865 S2            1 RES     
   28333 C1        -396.2502  -108.2364   242.2664 C1            1 RES     
   28334 C1        -395.6603  -107.8265   241.0645 C1            1 RES     
   28335 C0        -396.3823  -106.7908   238.1156 C0            1 RES     
   28336 C0        -397.0107  -108.1877   237.6171 C0            1 RES     
   28337 C0        -396.4842  -109.4752   238.3261 C0            1 RES     
   28338 C0        -397.6361  -110.2643   238.9767 C0            1 RES     
   28339 C0        -397.1773  -111.4441   239.8525 C0            1 RES     
   28340 C0        -398.4103  -112.2204   240.3531 C0            1 RES     
   28341 C0        -398.0623  -113.2918   241.3940 C0            1 RES     
   28342 C0        -399.3193  -114.0509   241.8250 C0            1 RES     
   28343 C0        -396.6805  -108.2442   236.0594 C0            1 RES     
   28344 C0        -397.0421  -109.3876   235.0601 C0            1 RES     
   28345 C0        -396.0879  -110.6196   234.9971 C0            1 RES     
   28346 C0        -396.0910  -111.2740   233.5813 C0            1 RES     
   28347 C0        -395.0850  -112.4342   233.4325 C0            1 RES     
   28348 C0        -394.7016  -112.7576   231.9649 C0            1 RES     
   28349 C0        -395.8680  -113.1413   231.0427 C0            1 RES     
   28350 C0        -395.3565  -113.4798   229.6358 C0            1 RES     
   28351 C0        -394.5290  -105.5451   239.2154 C0            1 RES     
   28352 C0        -393.8424  -104.8045   237.9245 C0            1 RES     
   28353 C0        -394.0260  -105.6091   236.5755 C0            1 RES     
   28354 C0        -393.1848  -105.2296   235.3610 C0            1 RES     
   28355 C0        -393.3116  -106.1688   234.1480 C0            1 RES     
   28356 C0        -394.6593  -106.0271   233.4106 C0            1 RES     
   28357 C0        -394.5872  -106.5436   231.9622 C0            1 RES     
   28358 C0        -394.3726  -108.0434   231.8542 C0            1 RES     
   28359 C0        -393.9874  -103.2254   237.7400 C0            1 RES     
   28360 C0        -392.6991  -102.5951   237.0868 C0            1 RES     
   28361 C0        -392.4619  -101.0679   236.9283 C0            1 RES     
   28362 C0        -393.0030  -100.3420   235.6531 C0            1 RES     
   28363 C0        -392.0127   -99.1960   235.2775 C0            1 RES     
   28364 C0        -392.3380   -98.3555   234.0237 C0            1 RES     
   28365 C0        -391.1194   -97.4623   233.6800 C0            1 RES     
   28366 C0        -391.3539   -96.5400   232.4846 C0            1 RES     
   28367 H4        -395.6107  -102.9859   239.9473 H4            1 RES     
   28368 H5        -395.1661  -101.0766   240.8377 H5            1 RES     
   28369 H4        -394.7888  -108.3142   240.6574 H4            1 RES     
   28370 H6        -396.8675  -106.0493   237.4454 H6            1 RES     
   28371 H6        -395.4087  -107.1007   237.7932 H6            1 RES     
   28372 H6        -398.1165  -108.1383   237.7258 H6            1 RES     
   28373 H6        -395.9516  -110.1453   237.6276 H6            1 RES     
   28374 H6        -395.7098  -109.2295   239.0434 H6            1 RES     
   28375 H6        -398.2213  -109.5792   239.6289 H6            1 RES     
   28376 H6        -398.2963  -110.6363   238.1622 H6            1 RES     
   28377 H6        -396.5184  -112.1349   239.2816 H6            1 RES     
   28378 H6        -396.6061  -111.0387   240.7167 H6            1 RES     
   28379 H6        -398.9066  -112.6976   239.4784 H6            1 RES     
   28380 H6        -399.1261  -111.5115   240.8238 H6            1 RES     
   28381 H6        -397.3285  -114.0157   240.9794 H6            1 RES     
   28382 H6        -397.6174  -112.8012   242.2875 H6            1 RES     
   28383 H6        -400.0771  -113.3498   242.2372 H6            1 RES     
   28384 H6        -399.7607  -114.5880   240.9580 H6            1 RES     
   28385 H6        -399.0647  -114.7945   242.6093 H6            1 RES     
   28386 H6        -397.1840  -107.3444   235.6427 H6            1 RES     
   28387 H6        -395.5879  -108.0936   235.9113 H6            1 RES     
   28388 H6        -398.1108  -109.6796   235.0984 H6            1 RES     
   28389 H6        -396.8913  -108.8838   234.0790 H6            1 RES     
   28390 H6        -395.0442  -110.2672   235.1595 H6            1 RES     
   28391 H6        -396.3403  -111.3597   235.7834 H6            1 RES     
   28392 H6        -397.1070  -111.6145   233.2898 H6            1 RES     
   28393 H6        -395.7783  -110.5001   232.8642 H6            1 RES     
   28394 H6        -394.1281  -112.1466   233.9209 H6            1 RES     
   28395 H6        -395.4775  -113.3344   233.9514 H6            1 RES     
   28396 H6        -393.9699  -113.5956   231.9812 H6            1 RES     
   28397 H6        -394.1884  -111.8721   231.5273 H6            1 RES     
   28398 H6        -396.5767  -112.2902   230.9615 H6            1 RES     
   28399 H6        -396.4020  -114.0240   231.4516 H6            1 RES     
   28400 H6        -394.6654  -114.3498   229.6708 H6            1 RES     
   28401 H6        -394.8176  -112.6145   229.1922 H6            1 RES     
   28402 H6        -396.2089  -113.7376   228.9719 H6            1 RES     
   28403 H6        -394.2054  -104.9818   240.1180 H6            1 RES     
   28404 H6        -393.9724  -106.5079   239.2811 H6            1 RES     
   28405 H6        -392.7716  -104.9262   238.1968 H6            1 RES     
   28406 H6        -395.0803  -105.5515   236.2448 H6            1 RES     
   28407 H6        -393.7061  -106.6530   236.7816 H6            1 RES     
   28408 H6        -393.4981  -104.2404   234.9833 H6            1 RES     
   28409 H6        -392.1203  -105.2387   235.6809 H6            1 RES     
   28410 H6        -392.5188  -105.8335   233.4463 H6            1 RES     
   28411 H6        -393.1000  -107.2267   234.4209 H6            1 RES     
   28412 H6        -394.8982  -104.9464   233.3192 H6            1 RES     
   28413 H6        -395.4822  -106.5100   233.9786 H6            1 RES     
   28414 H6        -393.7651  -106.0185   231.4288 H6            1 RES     
   28415 H6        -395.5405  -106.2966   231.4467 H6            1 RES     
   28416 H6        -394.3177  -108.3347   230.7832 H6            1 RES     
   28417 H6        -395.2399  -108.5407   232.3113 H6            1 RES     
   28418 H6        -393.4363  -108.3638   232.3551 H6            1 RES     
   28419 H6        -394.9359  -102.9593   237.2240 H6            1 RES     
   28420 H6        -393.9740  -102.7561   238.7371 H6            1 RES     
   28421 H6        -391.8821  -102.9274   237.7630 H6            1 RES     
   28422 H6        -392.4325  -102.9889   236.1118 H6            1 RES     
   28423 H6        -391.3564  -101.0520   236.7974 H6            1 RES     
   28424 H6        -392.6602  -100.4908   237.8551 H6            1 RES     
   28425 H6        -394.0403   -99.9776   235.8175 H6            1 RES     
   28426 H6        -393.0078  -101.0395   234.7873 H6            1 RES     
   28427 H6        -391.0318   -99.6841   235.0779 H6            1 RES     
   28428 H6        -391.8891   -98.5048   236.1388 H6            1 RES     
   28429 H6        -393.2354   -97.7293   234.2176 H6            1 RES     
   28430 H6        -392.5401   -99.0178   233.1539 H6            1 RES     
   28431 H6        -390.2492   -98.1147   233.4412 H6            1 RES     
   28432 H6        -390.8507   -96.8308   234.5542 H6            1 RES     
   28433 H6        -392.1706   -95.8213   232.7037 H6            1 RES     
   28434 H6        -391.6034   -97.1242   231.5746 H6            1 RES     
   28435 H6        -390.4253   -95.9600   232.2822 H6            1 RES     
   28436 C0        -391.2642  -114.0419   247.3873 C0            1 RES     
   28437 C1        -391.7901  -113.5316   248.5413 C1            1 RES     
   28438 C1        -393.1352  -113.5994   248.5931 C1            1 RES     
   28439 C1        -393.6312  -114.0829   247.4973 C1            1 RES     
   28440 C1        -392.5543  -114.3896   246.5396 C1            1 RES     
   28441 C1        -393.0105  -113.3713   245.5056 C1            1 RES     
   28442 C1        -394.2865  -112.8999   245.6169 C1            1 RES     
   28443 S2        -395.2550  -113.7442   246.9129 S2            1 RES     
   28444 C1        -394.8310  -111.7435   244.7885 C1            1 RES     
   28445 C1        -394.1633  -111.2982   243.6097 C1            1 RES     
   28446 N3        -394.6304  -110.2474   242.8750 N3            1 RES     
   28447 C1        -395.7344  -109.5470   243.2184 C1            1 RES     
   28448 C1        -396.4269  -109.9080   244.3674 C1            1 RES     
   28449 C1        -395.9822  -111.0140   245.1540 C1            1 RES     
   28450 N3        -396.7365  -111.2618   246.2618 N3            1 RES     
   28451 S2        -397.9069  -110.0923   246.1791 S2            1 RES     
   28452 N3        -397.5290  -109.2535   244.8075 N3            1 RES     
   28453 S2        -393.7950  -112.8631   249.9436 S2            1 RES     
   28454 C1        -392.2705  -112.4263   250.5374 C1            1 RES     
   28455 C1        -391.2728  -112.8233   249.6388 C1            1 RES     
   28456 C0        -390.3516  -115.2922   247.8096 C0            1 RES     
   28457 C0        -389.9701  -116.2563   249.0424 C0            1 RES     
   28458 C0        -389.5620  -115.5491   250.3731 C0            1 RES     
   28459 C0        -390.4748  -115.9804   251.5366 C0            1 RES     
   28460 C0        -390.2559  -115.1876   252.8378 C0            1 RES     
   28461 C0        -391.1382  -115.7802   253.9531 C0            1 RES     
   28462 C0        -391.1379  -114.9328   255.2316 C0            1 RES     
   28463 C0        -392.0006  -115.5894   256.3119 C0            1 RES     
   28464 C0        -388.7637  -117.1445   248.4999 C0            1 RES     
   28465 C0        -387.9822  -118.2492   249.2781 C0            1 RES     
   28466 C0        -386.8225  -117.7894   250.2141 C0            1 RES     
   28467 C0        -385.7156  -118.8818   250.3327 C0            1 RES     
   28468 C0        -384.4936  -118.4381   251.1635 C0            1 RES     
   28469 C0        -383.2068  -119.2589   250.8878 C0            1 RES     
   28470 C0        -383.3151  -120.7695   251.1422 C0            1 RES     
   28471 C0        -381.9704  -121.4604   250.8774 C0            1 RES     
   28472 C0        -390.1901  -113.0727   246.6945 C0            1 RES     
   28473 C0        -389.1921  -113.4248   245.4429 C0            1 RES     
   28474 C0        -388.1967  -114.6131   245.7563 C0            1 RES     
   28475 C0        -387.0044  -114.8493   244.8348 C0            1 RES     
   28476 C0        -386.0032  -115.9184   245.3083 C0            1 RES     
   28477 C0        -386.5453  -117.3568   245.1757 C0            1 RES     
   28478 C0        -385.4165  -118.4031   245.1422 C0            1 RES     
   28479 C0        -384.6474  -118.5197   246.4468 C0            1 RES     
   28480 C0        -389.7626  -113.4585   243.9523 C0            1 RES     
   28481 C0        -388.6944  -112.9546   242.9088 C0            1 RES     
   28482 C0        -388.9946  -112.7123   241.4039 C0            1 RES     
   28483 C0        -388.8587  -113.9032   240.3993 C0            1 RES     
   28484 C0        -388.3590  -113.3430   239.0313 C0            1 RES     
   28485 C0        -388.1277  -114.3552   237.8884 C0            1 RES     
   28486 C0        -387.3949  -113.6463   236.7218 C0            1 RES     
   28487 C0        -387.1662  -114.5439   235.5066 C0            1 RES     
   28488 H4        -392.3382  -112.9780   244.7889 H4            1 RES     
   28489 H5        -393.2774  -111.7975   243.2525 H5            1 RES     
   28490 H4        -390.2344  -112.5723   249.7868 H4            1 RES     
   28491 H6        -390.5533  -116.0117   246.9874 H6            1 RES     
   28492 H6        -389.3594  -114.8881   247.8039 H6            1 RES     
   28493 H6        -390.8277  -116.9366   249.2395 H6            1 RES     
   28494 H6        -388.5146  -115.7625   250.6523 H6            1 RES     
   28495 H6        -389.5511  -114.4725   250.2484 H6            1 RES     
   28496 H6        -391.5361  -115.8343   251.2375 H6            1 RES     
   28497 H6        -390.2997  -117.0631   251.7231 H6            1 RES     
   28498 H6        -389.1908  -115.2256   253.1562 H6            1 RES     
   28499 H6        -390.5361  -114.1268   252.6541 H6            1 RES     
   28500 H6        -390.7728  -116.8057   254.1855 H6            1 RES     
   28501 H6        -392.1882  -115.8506   253.5943 H6            1 RES     
   28502 H6        -390.1041  -114.8118   255.6201 H6            1 RES     
   28503 H6        -391.5556  -113.9277   255.0030 H6            1 RES     
   28504 H6        -393.0413  -115.7315   255.9480 H6            1 RES     
   28505 H6        -391.5796  -116.5790   256.5918 H6            1 RES     
   28506 H6        -392.0293  -114.9482   257.2178 H6            1 RES     
   28507 H6        -389.1919  -117.6763   247.6220 H6            1 RES     
   28508 H6        -387.9649  -116.4764   248.1075 H6            1 RES     
   28509 H6        -388.6448  -118.9968   249.7588 H6            1 RES     
   28510 H6        -387.4612  -118.7806   248.4503 H6            1 RES     
   28511 H6        -386.3227  -116.9086   249.7512 H6            1 RES     
   28512 H6        -387.2080  -117.4965   251.2117 H6            1 RES     
   28513 H6        -386.1213  -119.8338   250.7352 H6            1 RES     
   28514 H6        -385.3428  -119.0794   249.3164 H6            1 RES     
   28515 H6        -384.2303  -117.3933   250.8880 H6            1 RES     
   28516 H6        -384.7539  -118.4526   252.2431 H6            1 RES     
   28517 H6        -382.3965  -118.8469   251.5293 H6            1 RES     
   28518 H6        -382.9064  -119.1051   249.8271 H6            1 RES     
   28519 H6        -384.0744  -121.2102   250.4622 H6            1 RES     
   28520 H6        -383.6134  -120.9578   252.1944 H6            1 RES     
   28521 H6        -381.1882  -121.0671   251.5623 H6            1 RES     
   28522 H6        -381.6411  -121.2956   249.8284 H6            1 RES     
   28523 H6        -382.0641  -122.5543   251.0459 H6            1 RES     
   28524 H6        -390.7250  -112.1357   246.4245 H6            1 RES     
   28525 H6        -389.4863  -112.7620   247.5003 H6            1 RES     
   28526 H6        -388.5658  -112.5065   245.4493 H6            1 RES     
   28527 H6        -388.7520  -115.5697   245.7860 H6            1 RES     
   28528 H6        -387.7146  -114.3762   246.7289 H6            1 RES     
   28529 H6        -387.3567  -115.2108   243.8527 H6            1 RES     
   28530 H6        -386.4533  -113.8873   244.7549 H6            1 RES     
   28531 H6        -385.1427  -115.8284   244.6119 H6            1 RES     
   28532 H6        -385.6325  -115.7104   246.3367 H6            1 RES     
   28533 H6        -387.0546  -117.4514   244.1934 H6            1 RES     
   28534 H6        -387.2904  -117.5812   245.9678 H6            1 RES     
   28535 H6        -384.7088  -118.1492   244.3233 H6            1 RES     
   28536 H6        -385.8578  -119.3977   244.9154 H6            1 RES     
   28537 H6        -383.8452  -119.2810   246.3383 H6            1 RES     
   28538 H6        -385.3502  -118.8556   247.2224 H6            1 RES     
   28539 H6        -384.1820  -117.5563   246.7394 H6            1 RES     
   28540 H6        -390.2073  -114.4478   243.7068 H6            1 RES     
   28541 H6        -390.5375  -112.6804   243.8589 H6            1 RES     
   28542 H6        -388.4154  -111.9504   243.2946 H6            1 RES     
   28543 H6        -387.7652  -113.5142   242.8884 H6            1 RES     
   28544 H6        -388.1477  -112.0398   241.1390 H6            1 RES     
   28545 H6        -389.9141  -112.1169   241.2265 H6            1 RES     
   28546 H6        -389.8187  -114.4571   240.3127 H6            1 RES     
   28547 H6        -388.0742  -114.6105   240.7463 H6            1 RES     
   28548 H6        -387.3713  -112.8686   239.2303 H6            1 RES     
   28549 H6        -389.0555  -112.5576   238.6665 H6            1 RES     
   28550 H6        -389.1046  -114.7586   237.5447 H6            1 RES     
   28551 H6        -387.4917  -115.1972   238.2383 H6            1 RES     
   28552 H6        -386.3999  -113.2969   237.0792 H6            1 RES     
   28553 H6        -387.9759  -112.7590   236.3894 H6            1 RES     
   28554 H6        -388.1361  -114.8620   235.0714 H6            1 RES     
   28555 H6        -386.5672  -115.4375   235.7796 H6            1 RES     
   28556 H6        -386.6070  -113.9739   234.7306 H6            1 RES     
   28557 C0        -389.7846  -106.0629   256.7111 C0            1 RES     
   28558 C1        -391.0477  -105.5404   256.7338 C1            1 RES     
   28559 C1        -391.9944  -106.4412   257.0639 C1            1 RES     
   28560 C1        -391.4910  -107.6247   257.2262 C1            1 RES     
   28561 C1        -390.0383  -107.6012   256.9809 C1            1 RES     
   28562 C1        -390.0987  -108.5251   255.7738 C1            1 RES     
   28563 C1        -391.2325  -109.2683   255.6147 C1            1 RES     
   28564 S2        -392.3923  -109.1202   257.0159 S2            1 RES     
   28565 C1        -391.5316  -110.0893   254.3672 C1            1 RES     
   28566 C1        -390.5066  -110.4117   253.4296 C1            1 RES     
   28567 N3        -390.7702  -111.1259   252.2970 N3            1 RES     
   28568 C1        -392.0104  -111.5563   251.9745 C1            1 RES     
   28569 C1        -393.0655  -111.2616   252.8290 C1            1 RES     
   28570 C1        -392.8290  -110.5329   254.0343 C1            1 RES     
   28571 N3        -393.9438  -110.2961   254.7818 N3            1 RES     
   28572 S2        -395.1423  -111.0169   253.8938 S2            1 RES     
   28573 N3        -394.3467  -111.6276   252.5815 N3            1 RES     
   28574 S2        -393.5547  -105.8430   256.9706 S2            1 RES     
   28575 C1        -393.0145  -104.3123   256.4883 C1            1 RES     
   28576 C1        -391.6201  -104.3127   256.3610 C1            1 RES     
   28577 C0        -388.9448  -105.2884   257.8377 C0            1 RES     
   28578 C0        -389.0783  -104.2678   259.0768 C0            1 RES     
   28579 C0        -389.8696  -102.9496   258.8051 C0            1 RES     
   28580 C0        -391.0615  -102.8057   259.7702 C0            1 RES     
   28581 C0        -391.9986  -101.6286   259.4447 C0            1 RES     
   28582 C0        -393.0802  -101.5180   260.5362 C0            1 RES     
   28583 C0        -394.1762  -100.5012   260.1933 C0            1 RES     
   28584 C0        -395.1991  -100.4102   261.3280 C0            1 RES     
   28585 C0        -387.5752  -103.9320   259.4851 C0            1 RES     
   28586 C0        -387.0988  -102.9765   260.6238 C0            1 RES     
   28587 C0        -387.0317  -101.4512   260.3052 C0            1 RES     
   28588 C0        -385.9281  -100.7390   261.1463 C0            1 RES     
   28589 C0        -385.7471   -99.2476   260.7950 C0            1 RES     
   28590 C0        -384.3763   -98.6579   261.2176 C0            1 RES     
   28591 C0        -384.0509   -98.7409   262.7161 C0            1 RES     
   28592 C0        -382.6941   -98.0871   263.0120 C0            1 RES     
   28593 C0        -388.9668  -105.6928   255.3817 C0            1 RES     
   28594 C0        -387.3724  -105.9387   255.0923 C0            1 RES     
   28595 C0        -386.4308  -105.1769   256.1091 C0            1 RES     
   28596 C0        -384.9457  -105.0391   255.7897 C0            1 RES     
   28597 C0        -384.1421  -104.1443   256.7505 C0            1 RES     
   28598 C0        -383.9092  -104.7934   258.1306 C0            1 RES     
   28599 C0        -382.7141  -104.1686   258.8731 C0            1 RES     
   28600 C0        -382.9333  -102.7229   259.2842 C0            1 RES     
   28601 C0        -386.8450  -107.3985   254.7190 C0            1 RES     
   28602 C0        -385.6447  -107.3406   253.6993 C0            1 RES     
   28603 C0        -385.0213  -108.5893   253.0168 C0            1 RES     
   28604 C0        -383.8715  -109.3600   253.7445 C0            1 RES     
   28605 C0        -382.8903  -109.9189   252.6675 C0            1 RES     
   28606 C0        -381.6549  -110.6997   253.1657 C0            1 RES     
   28607 C0        -380.6891  -110.9355   251.9772 C0            1 RES     
   28608 C0        -379.4534  -111.7553   252.3455 C0            1 RES     
   28609 H4        -389.3347  -108.5218   255.0413 H4            1 RES     
   28610 H5        -389.4845  -110.1167   253.6026 H5            1 RES     
   28611 H4        -391.0778  -103.4586   255.9876 H4            1 RES     
   28612 H6        -388.3164  -106.1034   258.2564 H6            1 RES     
   28613 H6        -388.3969  -104.5564   257.2792 H6            1 RES     
   28614 H6        -389.5475  -104.8051   259.9301 H6            1 RES     
   28615 H6        -389.2301  -102.0541   258.9027 H6            1 RES     
   28616 H6        -390.1825  -102.8960   257.7689 H6            1 RES     
   28617 H6        -391.6737  -103.7335   259.7304 H6            1 RES     
   28618 H6        -390.6543  -102.6876   260.7987 H6            1 RES     
   28619 H6        -391.4355  -100.6708   259.3908 H6            1 RES     
   28620 H6        -392.4729  -101.8200   258.4568 H6            1 RES     
   28621 H6        -392.5892  -101.2287   261.4924 H6            1 RES     
   28622 H6        -393.5681  -102.5077   260.6733 H6            1 RES     
   28623 H6        -393.7365   -99.4953   260.0228 H6            1 RES     
   28624 H6        -394.6986  -100.8266   259.2669 H6            1 RES     
   28625 H6        -395.6509  -101.4060   261.5277 H6            1 RES     
   28626 H6        -394.7116  -100.0440   262.2571 H6            1 RES     
   28627 H6        -396.0109   -99.7045   261.0529 H6            1 RES     
   28628 H6        -387.1402  -104.9196   259.7539 H6            1 RES     
   28629 H6        -387.0229  -103.5760   258.5870 H6            1 RES     
   28630 H6        -387.5808  -103.1856   261.6000 H6            1 RES     
   28631 H6        -386.0313  -103.2726   260.7330 H6            1 RES     
   28632 H6        -386.7235  -101.3252   259.2426 H6            1 RES     
   28633 H6        -388.0206  -100.9704   260.4486 H6            1 RES     
   28634 H6        -386.1073  -100.8519   262.2363 H6            1 RES     
   28635 H6        -384.9718  -101.2300   260.9112 H6            1 RES     
   28636 H6        -385.7795   -99.1310   259.6895 H6            1 RES     
   28637 H6        -386.5854   -98.6604   261.2262 H6            1 RES     
   28638 H6        -384.3551   -97.5897   260.9071 H6            1 RES     
   28639 H6        -383.5729   -99.1865   260.6571 H6            1 RES     
   28640 H6        -384.0021   -99.8049   263.0303 H6            1 RES     
   28641 H6        -384.8348   -98.2213   263.3051 H6            1 RES     
   28642 H6        -382.7123   -97.0098   262.7389 H6            1 RES     
   28643 H6        -381.8817   -98.5860   262.4400 H6            1 RES     
   28644 H6        -382.4595   -98.1690   264.0946 H6            1 RES     
   28645 H6        -389.5205  -106.1371   254.5257 H6            1 RES     
   28646 H6        -389.0835  -104.5939   255.2407 H6            1 RES     
   28647 H6        -387.2773  -105.3865   254.1323 H6            1 RES     
   28648 H6        -386.4843  -105.6593   257.1034 H6            1 RES     
   28649 H6        -386.7774  -104.1216   256.1342 H6            1 RES     
   28650 H6        -384.4565  -106.0271   255.8519 H6            1 RES     
   28651 H6        -384.8663  -104.5947   254.7740 H6            1 RES     
   28652 H6        -383.1471  -104.0345   256.2694 H6            1 RES     
   28653 H6        -384.5901  -103.1298   256.8421 H6            1 RES     
   28654 H6        -383.6280  -105.8566   257.9761 H6            1 RES     
   28655 H6        -384.8326  -104.7722   258.7469 H6            1 RES     
   28656 H6        -381.8112  -104.2311   258.2276 H6            1 RES     
   28657 H6        -382.5166  -104.7596   259.7936 H6            1 RES     
   28658 H6        -382.0255  -102.3414   259.7992 H6            1 RES     
   28659 H6        -383.7760  -102.6982   259.9897 H6            1 RES     
   28660 H6        -383.1426  -102.0723   258.4106 H6            1 RES     
   28661 H6        -386.6404  -108.0045   255.6288 H6            1 RES     
   28662 H6        -387.6160  -107.9028   254.1143 H6            1 RES     
   28663 H6        -386.0565  -106.7473   252.8547 H6            1 RES     
   28664 H6        -384.7765  -106.7834   254.0351 H6            1 RES     
   28665 H6        -384.5152  -108.1086   252.1494 H6            1 RES     
   28666 H6        -385.7746  -109.2761   252.5785 H6            1 RES     
   28667 H6        -384.2850  -110.1542   254.4034 H6            1 RES     
   28668 H6        -383.2751  -108.6596   254.3691 H6            1 RES     
   28669 H6        -382.4970  -109.0353   252.1152 H6            1 RES     
   28670 H6        -383.4430  -110.5613   251.9486 H6            1 RES     
   28671 H6        -381.9781  -111.6699   253.6010 H6            1 RES     
   28672 H6        -381.1144  -110.1168   253.9427 H6            1 RES     
   28673 H6        -380.3417  -109.9498   251.5929 H6            1 RES     
   28674 H6        -381.2186  -111.4623   251.1541 H6            1 RES     
   28675 H6        -379.7471  -112.7751   252.6697 H6            1 RES     
   28676 H6        -378.8727  -111.2591   253.1508 H6            1 RES     
   28677 H6        -378.7972  -111.8502   251.4510 H6            1 RES     
   28678 C0        -397.4081   -97.4012   252.2787 C0            1 RES     
   28679 C1        -398.4973   -98.1921   252.0399 C1            1 RES     
   28680 C1        -399.0290   -98.7239   253.1584 C1            1 RES     
   28681 C1        -398.3403   -98.4089   254.2105 C1            1 RES     
   28682 C1        -397.1835   -97.5772   253.8351 C1            1 RES     
   28683 C1        -396.1452   -98.5943   254.2840 C1            1 RES     
   28684 C1        -396.5659   -99.5838   255.1247 C1            1 RES     
   28685 S2        -398.2898   -99.3687   255.6834 S2            1 RES     
   28686 C1        -395.7074  -100.7817   255.5095 C1            1 RES     
   28687 C1        -394.2976  -100.7818   255.2951 C1            1 RES     
   28688 N3        -393.5242  -101.8599   255.6141 N3            1 RES     
   28689 C1        -394.0345  -103.0002   256.1305 C1            1 RES     
   28690 C1        -395.4042  -103.0836   256.3476 C1            1 RES     
   28691 C1        -396.2465  -101.9706   256.0451 C1            1 RES     
   28692 N3        -397.5710  -102.1788   256.2899 N3            1 RES     
   28693 S2        -397.5983  -103.7294   256.8725 S2            1 RES     
   28694 N3        -396.0128  -104.1908   256.8380 N3            1 RES     
   28695 S2        -400.2828   -99.7933   252.8653 S2            1 RES     
   28696 C1        -400.1740   -99.5717   251.1901 C1            1 RES     
   28697 C1        -399.1215   -98.6992   250.8878 C1            1 RES     
   28698 C0        -397.7974   -95.9217   251.7949 C0            1 RES     
   28699 C0        -399.0266   -95.0038   251.3039 C0            1 RES     
   28700 C0        -399.8990   -95.5786   250.1437 C0            1 RES     
   28701 C0        -401.3766   -95.6967   250.5630 C0            1 RES     
   28702 C0        -402.2659   -96.4283   249.5415 C0            1 RES     
   28703 C0        -403.7316   -96.3843   250.0142 C0            1 RES     
   28704 C0        -404.6621   -97.2582   249.1639 C0            1 RES     
   28705 C0        -406.1061   -97.1453   249.6585 C0            1 RES     
   28706 C0        -398.3503   -93.6326   250.8552 C0            1 RES     
   28707 C0        -399.0678   -92.3729   250.2763 C0            1 RES     
   28708 C0        -399.3880   -92.3622   248.7500 C0            1 RES     
   28709 C0        -399.3950   -90.9117   248.1768 C0            1 RES     
   28710 C0        -399.6031   -90.8499   246.6493 C0            1 RES     
   28711 C0        -399.1217   -89.5281   245.9962 C0            1 RES     
   28712 C0        -399.7823   -88.2466   246.5251 C0            1 RES     
   28713 C0        -399.2567   -87.0167   245.7722 C0            1 RES     
   28714 C0        -396.1582   -97.7366   251.3308 C0            1 RES     
   28715 C0        -394.7760   -96.8721   251.1621 C0            1 RES     
   28716 C0        -395.0222   -95.4021   250.6336 C0            1 RES     
   28717 C0        -393.8395   -94.5864   250.1214 C0            1 RES     
   28718 C0        -394.1968   -93.2349   249.4768 C0            1 RES     
   28719 C0        -394.6407   -92.1726   250.5038 C0            1 RES     
   28720 C0        -394.4911   -90.7400   249.9605 C0            1 RES     
   28721 C0        -395.4293   -90.4175   248.8104 C0            1 RES     
   28722 C0        -393.6404   -96.9565   252.2809 C0            1 RES     
   28723 C0        -392.1979   -96.8462   251.6555 C0            1 RES     
   28724 C0        -390.8835   -97.0582   252.4562 C0            1 RES     
   28725 C0        -390.2419   -95.8422   253.2016 C0            1 RES     
   28726 C0        -388.6900   -96.0015   253.1654 C0            1 RES     
   28727 C0        -387.8441   -94.8912   253.8256 C0            1 RES     
   28728 C0        -386.3538   -95.0999   253.4565 C0            1 RES     
   28729 C0        -385.4138   -94.0867   254.1081 C0            1 RES     
   28730 H4        -395.1635   -98.5877   253.8884 H4            1 RES     
   28731 H5        -393.7982   -99.9156   254.8927 H5            1 RES     
   28732 H4        -398.8286   -98.4834   249.8726 H4            1 RES     
   28733 H6        -397.3144   -95.2916   252.5722 H6            1 RES     
   28734 H6        -397.3421   -95.8493   250.8278 H6            1 RES     
   28735 H6        -399.6794   -94.7875   252.1780 H6            1 RES     
   28736 H6        -399.8422   -94.9552   249.2335 H6            1 RES     
   28737 H6        -399.5023   -96.5260   249.7978 H6            1 RES     
   28738 H6        -401.4379   -96.2642   251.5177 H6            1 RES     
   28739 H6        -401.7660   -94.6682   250.7306 H6            1 RES     
   28740 H6        -402.1926   -95.9576   248.5363 H6            1 RES     
   28741 H6        -401.9212   -97.4834   249.4677 H6            1 RES     
   28742 H6        -404.0813   -95.3280   249.9838 H6            1 RES     
   28743 H6        -403.7916   -96.7478   251.0633 H6            1 RES     
   28744 H6        -404.6213   -96.9498   248.0973 H6            1 RES     
   28745 H6        -404.3394   -98.3195   249.2435 H6            1 RES     
   28746 H6        -406.1770   -97.4401   250.7279 H6            1 RES     
   28747 H6        -406.4699   -96.1010   249.5486 H6            1 RES     
   28748 H6        -406.7649   -97.8136   249.0651 H6            1 RES     
   28749 H6        -397.8470   -93.2644   251.7760 H6            1 RES     
   28750 H6        -397.5451   -93.8460   250.1172 H6            1 RES     
   28751 H6        -399.9258   -92.0369   250.8926 H6            1 RES     
   28752 H6        -398.2796   -91.5948   250.3882 H6            1 RES     
   28753 H6        -398.5678   -92.8902   248.2130 H6            1 RES     
   28754 H6        -400.3442   -92.8830   248.5399 H6            1 RES     
   28755 H6        -400.1468   -90.2734   248.6873 H6            1 RES     
   28756 H6        -398.4016   -90.4800   248.3709 H6            1 RES     
   28757 H6        -398.9912   -91.6449   246.1695 H6            1 RES     
   28758 H6        -400.6698   -91.0483   246.4119 H6            1 RES     
   28759 H6        -399.3105   -89.6007   244.9022 H6            1 RES     
   28760 H6        -398.0218   -89.4385   246.1420 H6            1 RES     
   28761 H6        -399.5484   -88.1225   247.6036 H6            1 RES     
   28762 H6        -400.8827   -88.3036   246.3938 H6            1 RES     
   28763 H6        -399.4992   -87.0888   244.6898 H6            1 RES     
   28764 H6        -398.1544   -86.9254   245.8850 H6            1 RES     
   28765 H6        -399.7261   -86.0940   246.1746 H6            1 RES     
   28766 H6        -395.8567   -98.7844   251.5499 H6            1 RES     
   28767 H6        -396.5586   -97.7799   250.2921 H6            1 RES     
   28768 H6        -394.3247   -97.4209   250.3072 H6            1 RES     
   28769 H6        -395.4912   -94.7914   251.4281 H6            1 RES     
   28770 H6        -395.6690   -95.4914   249.7346 H6            1 RES     
   28771 H6        -393.1714   -94.3280   250.9618 H6            1 RES     
   28772 H6        -393.3253   -95.1992   249.3497 H6            1 RES     
   28773 H6        -393.2471   -92.8764   249.0262 H6            1 RES     
   28774 H6        -394.9401   -93.3521   248.6570 H6            1 RES     
   28775 H6        -393.9575   -92.2216   251.3780 H6            1 RES     
   28776 H6        -395.6715   -92.3690   250.8668 H6            1 RES     
   28777 H6        -393.4414   -90.5838   249.6293 H6            1 RES     
   28778 H6        -394.6994   -90.0222   250.7833 H6            1 RES     
   28779 H6        -395.2513   -89.3758   248.4667 H6            1 RES     
   28780 H6        -396.4598   -90.4941   249.1857 H6            1 RES     
   28781 H6        -395.2800   -91.1027   247.9511 H6            1 RES     
   28782 H6        -393.8316   -96.2433   253.1125 H6            1 RES     
   28783 H6        -393.6225   -97.9830   252.6817 H6            1 RES     
   28784 H6        -392.1867   -97.6579   250.8964 H6            1 RES     
   28785 H6        -392.0025   -95.9376   251.0960 H6            1 RES     
   28786 H6        -390.1754   -97.2659   251.6225 H6            1 RES     
   28787 H6        -390.8880   -97.9767   253.0787 H6            1 RES     
   28788 H6        -390.6419   -95.7582   254.2354 H6            1 RES     
   28789 H6        -390.4663   -94.8978   252.6595 H6            1 RES     
   28790 H6        -388.4024   -96.0123   252.0895 H6            1 RES     
   28791 H6        -388.3987   -96.9757   253.6137 H6            1 RES     
   28792 H6        -387.9791   -94.9260   254.9282 H6            1 RES     
   28793 H6        -388.1577   -93.8913   253.4542 H6            1 RES     
   28794 H6        -386.2390   -95.0100   252.3526 H6            1 RES     
   28795 H6        -386.0250   -96.1178   253.7584 H6            1 RES     
   28796 H6        -385.4417   -94.1865   255.2130 H6            1 RES     
   28797 H6        -385.6846   -93.0500   253.8189 H6            1 RES     
   28798 H6        -384.3720   -94.2823   253.7674 H6            1 RES     
   28799 C0        -403.2123  -104.7384   244.1999 C0            1 RES     
   28800 C1        -403.5354  -105.7600   245.0489 C1            1 RES     
   28801 C1        -404.3965  -105.3974   246.0204 C1            1 RES     
   28802 C1        -404.6763  -104.1329   245.9625 C1            1 RES     
   28803 C1        -403.9445  -103.4970   244.8530 C1            1 RES     
   28804 C1        -403.1190  -102.5874   245.7506 C1            1 RES     
   28805 C1        -403.5634  -102.4034   247.0279 C1            1 RES     
   28806 S2        -405.1899  -103.1695   247.3413 S2            1 RES     
   28807 C1        -402.7577  -101.6865   248.1035 C1            1 RES     
   28808 C1        -401.6411  -100.8653   247.7682 C1            1 RES     
   28809 N3        -400.8987  -100.2389   248.7267 N3            1 RES     
   28810 C1        -401.1513  -100.3666   250.0486 C1            1 RES     
   28811 C1        -402.2108  -101.1686   250.4542 C1            1 RES     
   28812 C1        -403.0243  -101.8265   249.4820 C1            1 RES     
   28813 N3        -404.0232  -102.5931   250.0035 N3            1 RES     
   28814 S2        -403.8276  -102.3914   251.6362 S2            1 RES     
   28815 N3        -402.5284  -101.3786   251.7549 N3            1 RES     
   28816 S2        -404.6986  -106.6062   247.1379 S2            1 RES     
   28817 C1        -403.6774  -107.6962   246.3403 C1            1 RES     
   28818 C1        -403.0784  -107.0751   245.2376 C1            1 RES     
   28819 C0        -403.7334  -105.1664   242.7440 C0            1 RES     
   28820 C0        -404.6297  -106.2501   241.9587 C0            1 RES     
   28821 C0        -404.3163  -107.7510   242.2532 C0            1 RES     
   28822 C0        -405.5623  -108.4879   242.7799 C0            1 RES     
   28823 C0        -405.2878  -109.9214   243.2693 C0            1 RES     
   28824 C0        -406.6179  -110.5917   243.6629 C0            1 RES     
   28825 C0        -406.4248  -111.9495   244.3496 C0            1 RES     
   28826 C0        -407.7785  -112.5807   244.6832 C0            1 RES     
   28827 C0        -404.3877  -105.9307   240.4166 C0            1 RES     
   28828 C0        -404.9988  -106.6806   239.1915 C0            1 RES     
   28829 C0        -404.2909  -107.9874   238.7187 C0            1 RES     
   28830 C0        -404.4794  -108.2186   237.1878 C0            1 RES     
   28831 C0        -403.7113  -109.4424   236.6467 C0            1 RES     
   28832 C0        -403.4619  -109.4093   235.1163 C0            1 RES     
   28833 C0        -404.7202  -109.3284   234.2397 C0            1 RES     
   28834 C0        -404.3450  -109.3473   232.7516 C0            1 RES     
   28835 C0        -401.6342  -104.5920   243.9522 C0            1 RES     
   28836 C0        -400.8837  -103.6490   242.8414 C0            1 RES     
   28837 C0        -401.2738  -104.0112   241.3523 C0            1 RES     
   28838 C0        -400.4342  -103.4567   240.2060 C0            1 RES     
   28839 C0        -400.7871  -103.9932   238.8070 C0            1 RES     
   28840 C0        -402.1185  -103.4353   238.2625 C0            1 RES     
   28841 C0        -402.2092  -103.5393   236.7292 C0            1 RES     
   28842 C0        -402.2788  -104.9660   236.2128 C0            1 RES     
   28843 C0        -400.7448  -102.0783   243.0912 C0            1 RES     
   28844 C0        -399.3941  -101.5135   242.5076 C0            1 RES     
   28845 C0        -398.8883  -100.0619   242.7327 C0            1 RES     
   28846 C0        -399.3452   -98.9355   241.7487 C0            1 RES     
   28847 C0        -398.1798   -97.9092   241.5946 C0            1 RES     
   28848 C0        -398.4029   -96.7156   240.6408 C0            1 RES     
   28849 C0        -397.0583   -95.9751   240.4299 C0            1 RES     
   28850 C0        -397.1744   -94.7347   239.5451 C0            1 RES     
   28851 H4        -402.1929  -102.1902   245.4267 H4            1 RES     
   28852 H5        -401.3649  -100.6983   246.7399 H5            1 RES     
   28853 H4        -402.3310  -107.5686   244.6369 H4            1 RES     
   28854 H6        -404.1046  -104.2003   242.3400 H6            1 RES     
   28855 H6        -402.8491  -105.5315   242.2617 H6            1 RES     
   28856 H6        -405.7015  -106.0515   242.1801 H6            1 RES     
   28857 H6        -403.9486  -108.2818   241.3569 H6            1 RES     
   28858 H6        -403.4777  -107.8420   242.9337 H6            1 RES     
   28859 H6        -405.9810  -107.9215   243.6408 H6            1 RES     
   28860 H6        -406.3164  -108.5087   241.9624 H6            1 RES     
   28861 H6        -404.7940  -110.5276   242.4781 H6            1 RES     
   28862 H6        -404.6127  -109.8680   244.1518 H6            1 RES     
   28863 H6        -407.2332  -110.7225   242.7445 H6            1 RES     
   28864 H6        -407.1689  -109.9316   244.3679 H6            1 RES     
   28865 H6        -405.8562  -112.6423   243.6929 H6            1 RES     
   28866 H6        -405.8567  -111.8029   245.2944 H6            1 RES     
   28867 H6        -408.3750  -111.9050   245.3339 H6            1 RES     
   28868 H6        -408.3506  -112.7794   243.7513 H6            1 RES     
   28869 H6        -407.6288  -113.5421   245.2179 H6            1 RES     
   28870 H6        -404.7362  -104.8811   240.2992 H6            1 RES     
   28871 H6        -403.2941  -105.9267   240.2110 H6            1 RES     
   28872 H6        -406.1000  -106.7924   239.2524 H6            1 RES     
   28873 H6        -404.8035  -105.9590   238.3667 H6            1 RES     
   28874 H6        -403.1939  -107.8694   238.8689 H6            1 RES     
   28875 H6        -404.6383  -108.8628   239.3041 H6            1 RES     
   28876 H6        -405.5529  -108.2945   236.9143 H6            1 RES     
   28877 H6        -404.0633  -107.3401   236.6722 H6            1 RES     
   28878 H6        -402.6964  -109.4610   237.1010 H6            1 RES     
   28879 H6        -404.2379  -110.3732   236.9464 H6            1 RES     
   28880 H6        -402.8964  -110.3279   234.8437 H6            1 RES     
   28881 H6        -402.8157  -108.5345   234.8794 H6            1 RES     
   28882 H6        -405.2637  -108.3833   234.4511 H6            1 RES     
   28883 H6        -405.3877  -110.1892   234.4517 H6            1 RES     
   28884 H6        -403.8244  -110.2947   232.4926 H6            1 RES     
   28885 H6        -403.6775  -108.4941   232.5013 H6            1 RES     
   28886 H6        -405.2599  -109.2694   232.1266 H6            1 RES     
   28887 H6        -401.1714  -104.3589   244.9362 H6            1 RES     
   28888 H6        -401.2613  -105.6137   243.7109 H6            1 RES     
   28889 H6        -399.8419  -104.0148   242.9704 H6            1 RES     
   28890 H6        -402.3138  -103.6928   241.1489 H6            1 RES     
   28891 H6        -401.1418  -105.1094   241.2470 H6            1 RES     
   28892 H6        -400.5778  -102.3643   240.1315 H6            1 RES     
   28893 H6        -399.3759  -103.7278   240.4107 H6            1 RES     
   28894 H6        -399.9795  -103.6131   238.1461 H6            1 RES     
   28895 H6        -400.7608  -105.1051   238.7723 H6            1 RES     
   28896 H6        -402.1589  -102.3470   238.4800 H6            1 RES     
   28897 H6        -402.9889  -103.9135   238.7591 H6            1 RES     
   28898 H6        -401.3303  -103.0305   236.2770 H6            1 RES     
   28899 H6        -403.1238  -103.0074   236.3884 H6            1 RES     
   28900 H6        -402.3278  -104.9573   235.1027 H6            1 RES     
   28901 H6        -403.2006  -105.4203   236.6033 H6            1 RES     
   28902 H6        -401.3950  -105.5607   236.5220 H6            1 RES     
   28903 H6        -401.6511  -101.5289   242.7544 H6            1 RES     
   28904 H6        -400.5995  -101.9093   244.1704 H6            1 RES     
   28905 H6        -398.6217  -102.1480   242.9932 H6            1 RES     
   28906 H6        -399.2497  -101.6630   241.4428 H6            1 RES     
   28907 H6        -397.8059  -100.1924   242.5071 H6            1 RES     
   28908 H6        -398.9343   -99.7367   243.7926 H6            1 RES     
   28909 H6        -400.2894   -98.4650   242.0995 H6            1 RES     
   28910 H6        -399.5180   -99.3581   240.7349 H6            1 RES     
   28911 H6        -397.3154   -98.4780   241.1830 H6            1 RES     
   28912 H6        -397.8919   -97.5108   242.5912 H6            1 RES     
   28913 H6        -399.1602   -96.0280   241.0754 H6            1 RES     
   28914 H6        -398.7631   -97.0713   239.6511 H6            1 RES     
   28915 H6        -396.3345   -96.6706   239.9479 H6            1 RES     
   28916 H6        -396.6382   -95.6605   241.4097 H6            1 RES     
   28917 H6        -397.8344   -93.9797   240.0204 H6            1 RES     
   28918 H6        -397.5686   -94.9978   238.5415 H6            1 RES     
   28919 H6        -396.1655   -94.2822   239.4151 H6            1 RES     
   28920 C0        -399.6106  -115.4203   249.2707 C0            1 RES     
   28921 C1        -399.9801  -115.1669   250.5623 C1            1 RES     
   28922 C1        -401.3110  -115.0245   250.7208 C1            1 RES     
   28923 C1        -401.9372  -115.1006   249.5883 C1            1 RES     
   28924 C1        -400.9804  -115.3055   248.4869 C1            1 RES     
   28925 C1        -401.2891  -113.9821   247.8030 C1            1 RES     
   28926 C1        -402.4505  -113.3564   248.1533 C1            1 RES     
   28927 S2        -403.4966  -114.3528   249.2683 S2            1 RES     
   28928 C1        -402.8111  -111.9441   247.7115 C1            1 RES     
   28929 C1        -402.1281  -111.3085   246.6330 C1            1 RES     
   28930 N3        -402.4278  -110.0346   246.2462 N3            1 RES     
   28931 C1        -403.3675  -109.2838   246.8632 C1            1 RES     
   28932 C1        -404.0607  -109.8274   247.9375 C1            1 RES     
   28933 C1        -403.7907  -111.1641   248.3618 C1            1 RES     
   28934 N3        -404.5257  -111.5788   249.4320 N3            1 RES     
   28935 S2        -405.4642  -110.2558   249.7688 S2            1 RES     
   28936 N3        -405.0025  -109.1469   248.6352 N3            1 RES     
   28937 S2        -401.7614  -114.5889   252.2728 S2            1 RES     
   28938 C1        -400.1569  -114.5882   252.8141 C1            1 RES     
   28939 C1        -399.2915  -114.8817   251.7532 C1            1 RES     
   28940 C0        -398.9245  -116.8707   249.2634 C0            1 RES     
   28941 C0        -398.6699  -118.1849   250.1593 C0            1 RES     
   28942 C0        -398.0779  -117.9468   251.5842 C0            1 RES     
   28943 C0        -398.9997  -118.5247   252.6747 C0            1 RES     
   28944 C0        -398.5793  -118.1663   254.1115 C0            1 RES     
   28945 C0        -399.5029  -118.8889   255.1108 C0            1 RES     
   28946 C0        -399.2881  -118.4366   256.5605 C0            1 RES     
   28947 C0        -400.2059  -119.2133   257.5075 C0            1 RES     
   28948 C0        -397.6733  -119.0759   249.2922 C0            1 RES     
   28949 C0        -397.0728  -120.4644   249.6771 C0            1 RES     
   28950 C0        -395.8065  -120.4758   250.5874 C0            1 RES     
   28951 C0        -394.9145  -121.7252   250.3114 C0            1 RES     
   28952 C0        -393.5948  -121.7333   251.1106 C0            1 RES     
   28953 C0        -392.4947  -122.6467   250.5099 C0            1 RES     
   28954 C0        -392.8665  -124.1300   250.3691 C0            1 RES     
   28955 C0        -391.6852  -124.9328   249.8075 C0            1 RES     
   28956 C0        -398.4100  -114.4883   248.7579 C0            1 RES     
   28957 C0        -397.5524  -114.6426   247.3697 C0            1 RES     
   28958 C0        -396.7787  -116.0179   247.2661 C0            1 RES     
   28959 C0        -395.6938  -116.1848   246.2070 C0            1 RES     
   28960 C0        -394.8850  -117.4920   246.2878 C0            1 RES     
   28961 C0        -395.6873  -118.7296   245.8350 C0            1 RES     
   28962 C0        -394.7726  -119.8971   245.4228 C0            1 RES     
   28963 C0        -393.9785  -120.4917   246.5731 C0            1 RES     
   28964 C0        -398.1876  -114.1720   245.9828 C0            1 RES     
   28965 C0        -397.0944  -113.5838   245.0118 C0            1 RES     
   28966 C0        -397.4141  -112.8921   243.6579 C0            1 RES     
   28967 C0        -397.5456  -113.7673   242.3685 C0            1 RES     
   28968 C0        -397.0153  -112.9434   241.1541 C0            1 RES     
   28969 C0        -397.0266  -113.6271   239.7696 C0            1 RES     
   28970 C0        -396.2308  -112.7557   238.7656 C0            1 RES     
   28971 C0        -396.2270  -113.3105   237.3419 C0            1 RES     
   28972 H4        -400.5899  -113.5232   247.1543 H4            1 RES     
   28973 H5        -401.3663  -111.8291   246.0758 H5            1 RES     
   28974 H4        -398.2190  -114.8550   251.8634 H4            1 RES     
   28975 H6        -399.2925  -117.2938   248.3042 H6            1 RES     
   28976 H6        -397.8763  -116.6491   249.2703 H6            1 RES     
   28977 H6        -399.6277  -118.7428   250.2512 H6            1 RES     
   28978 H6        -397.0758  -118.3976   251.6980 H6            1 RES     
   28979 H6        -397.8755  -116.8943   251.7452 H6            1 RES     
   28980 H6        -400.0289  -118.1300   252.5255 H6            1 RES     
   28981 H6        -399.0179  -119.6305   252.5540 H6            1 RES     
   28982 H6        -397.5257  -118.4645   254.3073 H6            1 RES     
   28983 H6        -398.6682  -117.0648   254.2390 H6            1 RES     
   28984 H6        -399.3216  -119.9843   255.0312 H6            1 RES     
   28985 H6        -400.5635  -118.6847   254.8465 H6            1 RES     
   28986 H6        -398.2329  -118.5983   256.8681 H6            1 RES     
   28987 H6        -399.5244  -117.3529   256.6433 H6            1 RES     
   28988 H6        -401.2707  -119.0773   257.2187 H6            1 RES     
   28989 H6        -399.9612  -120.2969   257.4778 H6            1 RES     
   28990 H6        -400.0745  -118.8495   258.5482 H6            1 RES     
   28991 H6        -398.2319  -119.2687   248.3501 H6            1 RES     
   28992 H6        -396.7845  -118.4663   249.0150 H6            1 RES     
   28993 H6        -397.8385  -121.1958   250.0055 H6            1 RES     
   28994 H6        -396.6969  -120.8264   248.6939 H6            1 RES     
   28995 H6        -395.1754  -119.5963   250.3263 H6            1 RES     
   28996 H6        -396.0852  -120.4086   251.6586 H6            1 RES     
   28997 H6        -395.4691  -122.6711   250.4870 H6            1 RES     
   28998 H6        -394.6317  -121.6949   249.2484 H6            1 RES     
   28999 H6        -393.1573  -120.7110   251.0947 H6            1 RES     
   29000 H6        -393.8033  -122.0003   252.1683 H6            1 RES     
   29001 H6        -391.5938  -122.5653   251.1577 H6            1 RES     
   29002 H6        -392.2205  -122.2594   249.5030 H6            1 RES     
   29003 H6        -393.7244  -124.2364   249.6720 H6            1 RES     
   29004 H6        -393.1455  -124.5480   251.3585 H6            1 RES     
   29005 H6        -390.8133  -124.8764   250.4947 H6            1 RES     
   29006 H6        -391.3799  -124.5431   248.8120 H6            1 RES     
   29007 H6        -391.9702  -126.0002   249.6918 H6            1 RES     
   29008 H6        -398.7757  -113.4387   248.7941 H6            1 RES     
   29009 H6        -397.6248  -114.5305   249.5471 H6            1 RES     
   29010 H6        -396.7686  -113.8770   247.5573 H6            1 RES     
   29011 H6        -397.4981  -116.8412   247.0965 H6            1 RES     
   29012 H6        -396.2169  -116.1393   248.2170 H6            1 RES     
   29013 H6        -396.1513  -116.2001   245.2021 H6            1 RES     
   29014 H6        -394.9798  -115.3419   246.3302 H6            1 RES     
   29015 H6        -394.0557  -117.3571   245.5616 H6            1 RES     
   29016 H6        -394.4354  -117.6379   247.2953 H6            1 RES     
   29017 H6        -396.2502  -118.4662   244.9145 H6            1 RES     
   29018 H6        -396.4236  -119.0372   246.6071 H6            1 RES     
   29019 H6        -394.0688  -119.5482   244.6361 H6            1 RES     
   29020 H6        -395.3989  -120.7049   244.9861 H6            1 RES     
   29021 H6        -393.3355  -121.3150   246.1941 H6            1 RES     
   29022 H6        -394.6945  -120.9074   247.2963 H6            1 RES     
   29023 H6        -393.3312  -119.7356   247.0625 H6            1 RES     
   29024 H6        -398.8171  -114.9690   245.5298 H6            1 RES     
   29025 H6        -398.8100  -113.2819   246.1695 H6            1 RES     
   29026 H6        -396.6183  -112.7839   245.6190 H6            1 RES     
   29027 H6        -396.2856  -114.2610   244.7583 H6            1 RES     
   29028 H6        -396.4713  -112.3214   243.4999 H6            1 RES     
   29029 H6        -398.2159  -112.1284   243.7298 H6            1 RES     
   29030 H6        -398.5939  -114.1108   242.2307 H6            1 RES     
   29031 H6        -396.8890  -114.6616   242.4429 H6            1 RES     
   29032 H6        -395.9491  -112.7107   241.3765 H6            1 RES     
   29033 H6        -397.5718  -111.9848   241.0748 H6            1 RES     
   29034 H6        -398.0758  -113.7546   239.4258 H6            1 RES     
   29035 H6        -396.5404  -114.6253   239.8255 H6            1 RES     
   29036 H6        -395.1731  -112.6861   239.1068 H6            1 RES     
   29037 H6        -396.6538  -111.7284   238.7333 H6            1 RES     
   29038 H6        -397.2579  -113.3333   236.9319 H6            1 RES     
   29039 H6        -395.7903  -114.3305   237.3140 H6            1 RES     
   29040 H6        -395.6091  -112.6494   236.6932 H6            1 RES     
   29041 C0        -396.2632  -110.6600   260.1759 C0            1 RES     
   29042 C1        -397.4065  -109.9638   260.4532 C1            1 RES     
   29043 C1        -398.4862  -110.7524   260.6236 C1            1 RES     
   29044 C1        -398.2016  -112.0010   260.4224 C1            1 RES     
   29045 C1        -396.7822  -112.1500   260.0563 C1            1 RES     
   29046 C1        -397.0668  -112.6844   258.6607 C1            1 RES     
   29047 C1        -398.3238  -113.1588   258.4200 C1            1 RES     
   29048 S2        -399.3708  -113.2123   259.9138 S2            1 RES     
   29049 C1        -398.8257  -113.5455   257.0350 C1            1 RES     
   29050 C1        -397.9217  -113.7621   255.9535 C1            1 RES     
   29051 N3        -398.3638  -114.0849   254.7035 N3            1 RES     
   29052 C1        -399.6755  -114.2006   254.3978 C1            1 RES     
   29053 C1        -400.6180  -113.9826   255.3949 C1            1 RES     
   29054 C1        -400.1965  -113.6614   256.7211 C1            1 RES     
   29055 N3        -401.2132  -113.4590   257.6060 N3            1 RES     
   29056 S2        -402.5633  -113.7017   256.6770 S2            1 RES     
   29057 N3        -401.9547  -114.0510   255.1819 N3            1 RES     
   29058 S2        -399.9129  -109.9037   260.8373 S2            1 RES     
   29059 C1        -399.1237  -108.4098   260.7238 C1            1 RES     
   29060 C1        -397.7605  -108.6042   260.4703 C1            1 RES     
   29061 C0        -395.2444  -110.3730   261.3818 C0            1 RES     
   29062 C0        -395.1311  -109.7239   262.8516 C0            1 RES     
   29063 C0        -395.6787  -108.2704   263.0101 C0            1 RES     
   29064 C0        -396.7781  -108.2030   264.0869 C0            1 RES     
   29065 C0        -397.4972  -106.8445   264.1705 C0            1 RES     
   29066 C0        -398.4887  -106.8615   265.3496 C0            1 RES     
   29067 C0        -399.3941  -105.6240   265.3893 C0            1 RES     
   29068 C0        -400.3294  -105.6810   266.5994 C0            1 RES     
   29069 C0        -393.5747  -109.7645   263.1903 C0            1 RES     
   29070 C0        -392.8790  -109.2496   264.4894 C0            1 RES     
   29071 C0        -392.5479  -107.7281   264.5762 C0            1 RES     
   29072 C0        -391.2947  -107.4650   265.4668 C0            1 RES     
   29073 C0        -390.8594  -105.9853   265.5026 C0            1 RES     
   29074 C0        -389.3856  -105.7675   265.9340 C0            1 RES     
   29075 C0        -389.0122  -106.3106   267.3210 C0            1 RES     
   29076 C0        -387.5464  -105.9951   267.6488 C0            1 RES     
   29077 C0        -395.4536  -110.0790   258.9189 C0            1 RES     
   29078 C0        -393.9465  -110.4945   258.4265 C0            1 RES     
   29079 C0        -392.8351  -110.2061   259.5141 C0            1 RES     
   29080 C0        -391.3663  -110.2318   259.1037 C0            1 RES     
   29081 C0        -390.3687  -109.7794   260.1851 C0            1 RES     
   29082 C0        -390.1954  -110.8112   261.3190 C0            1 RES     
   29083 C0        -388.8730  -110.6191   262.0834 C0            1 RES     
   29084 C0        -388.8040  -109.3260   262.8772 C0            1 RES     
   29085 C0        -393.7137  -111.8619   257.6363 C0            1 RES     
   29086 C0        -392.5715  -111.7244   256.5591 C0            1 RES     
   29087 C0        -392.2201  -112.8228   255.5181 C0            1 RES     
   29088 C0        -391.1989  -113.9415   255.9072 C0            1 RES     
   29089 C0        -390.3877  -114.3367   254.6341 C0            1 RES     
   29090 C0        -389.2949  -115.4161   254.7921 C0            1 RES     
   29091 C0        -388.4447  -115.4721   253.4979 C0            1 RES     
   29092 C0        -387.3648  -116.5529   253.5210 C0            1 RES     
   29093 H4        -396.3497  -112.6059   257.8861 H4            1 RES     
   29094 H5        -396.8559  -113.6979   256.1008 H5            1 RES     
   29095 H4        -397.0884  -107.7816   260.2842 H4            1 RES     
   29096 H6        -394.7576  -111.3632   261.5115 H6            1 RES     
   29097 H6        -394.5979  -109.6163   260.9853 H6            1 RES     
   29098 H6        -395.6510  -110.3899   263.5748 H6            1 RES     
   29099 H6        -394.8819  -107.5536   263.2781 H6            1 RES     
   29100 H6        -396.0239  -107.8840   262.0582 H6            1 RES     
   29101 H6        -397.5514  -108.9707   263.8634 H6            1 RES     
   29102 H6        -396.3091  -108.4401   265.0674 H6            1 RES     
   29103 H6        -396.7710  -106.0147   264.3164 H6            1 RES     
   29104 H6        -398.0437  -106.6770   263.2160 H6            1 RES     
   29105 H6        -397.9093  -106.9302   266.2976 H6            1 RES     
   29106 H6        -399.1431  -107.7568   265.2681 H6            1 RES     
   29107 H6        -398.7856  -104.6963   265.4475 H6            1 RES     
   29108 H6        -400.0095  -105.5925   264.4635 H6            1 RES     
   29109 H6        -400.9466  -106.6052   266.5730 H6            1 RES     
   29110 H6        -399.7406  -105.6689   267.5418 H6            1 RES     
   29111 H6        -401.0097  -104.8036   266.5962 H6            1 RES     
   29112 H6        -393.3164  -110.8455   263.1492 H6            1 RES     
   29113 H6        -393.0084  -109.2715   262.3689 H6            1 RES     
   29114 H6        -393.3456  -109.6364   265.4176 H6            1 RES     
   29115 H6        -391.8801  -109.7355   264.4164 H6            1 RES     
   29116 H6        -392.2712  -107.3678   263.5596 H6            1 RES     
   29117 H6        -393.4240  -107.1494   264.9328 H6            1 RES     
   29118 H6        -391.4411  -107.8416   266.5011 H6            1 RES     
   29119 H6        -390.4566  -108.0228   265.0225 H6            1 RES     
   29120 H6        -390.9208  -105.5663   264.4744 H6            1 RES     
   29121 H6        -391.5550  -105.4095   266.1494 H6            1 RES     
   29122 H6        -389.1832  -104.6737   265.9133 H6            1 RES     
   29123 H6        -388.7196  -106.2466   265.1816 H6            1 RES     
   29124 H6        -389.1451  -107.4129   267.3398 H6            1 RES     
   29125 H6        -389.6595  -105.8510   268.0965 H6            1 RES     
   29126 H6        -387.3791  -104.8963   267.6701 H6            1 RES     
   29127 H6        -386.8666  -106.4442   266.8924 H6            1 RES     
   29128 H6        -387.2810  -106.4080   268.6452 H6            1 RES     
   29129 H6        -396.1184  -110.1743   258.0325 H6            1 RES     
   29130 H6        -395.3730  -108.9799   259.0820 H6            1 RES     
   29131 H6        -393.7961  -109.7236   257.6400 H6            1 RES     
   29132 H6        -392.9303  -110.9271   260.3479 H6            1 RES     
   29133 H6        -392.9807  -109.1561   259.8470 H6            1 RES     
   29134 H6        -391.0644  -111.2653   258.8588 H6            1 RES     
   29135 H6        -391.2537  -109.5452   258.2368 H6            1 RES     
   29136 H6        -389.3937  -109.7068   259.6582 H6            1 RES     
   29137 H6        -390.6182  -108.7697   260.5808 H6            1 RES     
   29138 H6        -390.1216  -111.8224   260.8659 H6            1 RES     
   29139 H6        -391.0698  -110.8085   262.0034 H6            1 RES     
   29140 H6        -388.0277  -110.6495   261.3620 H6            1 RES     
   29141 H6        -388.7451  -111.4639   262.7943 H6            1 RES     
   29142 H6        -387.8188  -109.2548   263.3864 H6            1 RES     
   29143 H6        -389.5944  -109.3577   263.6406 H6            1 RES     
   29144 H6        -388.9304  -108.4356   262.2280 H6            1 RES     
   29145 H6        -393.5820  -112.7192   258.3323 H6            1 RES     
   29146 H6        -394.5913  -112.0473   256.9960 H6            1 RES     
   29147 H6        -392.9060  -110.8630   255.9418 H6            1 RES     
   29148 H6        -391.6013  -111.4312   256.9458 H6            1 RES     
   29149 H6        -391.6749  -112.2126   254.7631 H6            1 RES     
   29150 H6        -393.1061  -113.2297   254.9882 H6            1 RES     
   29151 H6        -391.7203  -114.8068   256.3711 H6            1 RES     
   29152 H6        -390.4560  -113.5470   256.6343 H6            1 RES     
   29153 H6        -389.8648  -113.4127   254.2979 H6            1 RES     
   29154 H6        -391.0815  -114.6576   253.8275 H6            1 RES     
   29155 H6        -389.7703  -116.4017   254.9867 H6            1 RES     
   29156 H6        -388.6213  -115.1656   255.6402 H6            1 RES     
   29157 H6        -387.9404  -114.4898   253.3541 H6            1 RES     
   29158 H6        -389.0992  -115.6586   252.6193 H6            1 RES     
   29159 H6        -387.8254  -117.5599   253.5931 H6            1 RES     
   29160 H6        -386.6663  -116.3989   254.3697 H6            1 RES     
   29161 H6        -386.7791  -116.5052   252.5752 H6            1 RES     
   29162 C0        -402.3639   -99.9854   258.9023 C0            1 RES     
   29163 C1        -403.5896  -100.4904   258.5684 C1            1 RES     
   29164 C1        -404.1577  -101.2138   259.5536 C1            1 RES     
   29165 C1        -403.3750  -101.3169   260.5819 C1            1 RES     
   29166 C1        -402.1039  -100.6158   260.3302 C1            1 RES     
   29167 C1        -401.2502  -101.8732   260.3975 C1            1 RES     
   29168 C1        -401.8061  -102.9723   260.9856 C1            1 RES     
   29169 S2        -403.4337  -102.6386   261.7407 S2            1 RES     
   29170 C1        -401.1653  -104.3538   260.9609 C1            1 RES     
   29171 C1        -399.7908  -104.5266   260.6224 C1            1 RES     
   29172 N3        -399.2145  -105.7626   260.5739 N3            1 RES     
   29173 C1        -399.9010  -106.9009   260.8195 C1            1 RES     
   29174 C1        -401.2512  -106.8146   261.1351 C1            1 RES     
   29175 C1        -401.8880  -105.5387   261.2149 C1            1 RES     
   29176 N3        -403.2155  -105.5856   261.5203 N3            1 RES     
   29177 S2        -403.5000  -107.2101   261.6766 S2            1 RES     
   29178 N3        -402.0295  -107.8983   261.3735 N3            1 RES     
   29179 S2        -405.5985  -101.9407   259.1101 S2            1 RES     
   29180 C1        -405.5284  -101.2892   257.5487 C1            1 RES     
   29181 C1        -404.3487  -100.5524   257.3878 C1            1 RES     
   29182 C0        -402.4970   -98.3869   258.8615 C0            1 RES     
   29183 C0        -403.5581   -97.1806   258.7457 C0            1 RES     
   29184 C0        -404.5739   -97.2638   257.5629 C0            1 RES     
   29185 C0        -406.0271   -97.2481   258.0737 C0            1 RES     
   29186 C0        -407.0817   -97.5151   256.9847 C0            1 RES     
   29187 C0        -408.4910   -97.3624   257.5881 C0            1 RES     
   29188 C0        -409.6043   -97.8044   256.6301 C0            1 RES     
   29189 C0        -410.9787   -97.5960   257.2705 C0            1 RES     
   29190 C0        -402.6631   -95.8693   258.6099 C0            1 RES     
   29191 C0        -403.1632   -94.3991   258.4511 C0            1 RES     
   29192 C0        -403.5461   -93.9179   257.0179 C0            1 RES     
   29193 C0        -403.3132   -92.3851   256.8477 C0            1 RES     
   29194 C0        -403.5767   -91.8734   255.4162 C0            1 RES     
   29195 C0        -402.8916   -90.5209   255.0895 C0            1 RES     
   29196 C0        -403.2806   -89.3432   255.9950 C0            1 RES     
   29197 C0        -402.5735   -88.0577   255.5443 C0            1 RES     
   29198 C0        -401.2419  -100.2484   257.7865 C0            1 RES     
   29199 C0        -399.7337   -99.6100   257.7207 C0            1 RES     
   29200 C0        -399.7301   -98.0317   257.6209 C0            1 RES     
   29201 C0        -398.4427   -97.3125   257.2312 C0            1 RES     
   29202 C0        -398.5753   -95.7965   256.9994 C0            1 RES     
   29203 C0        -398.7688   -94.9987   258.3056 C0            1 RES     
   29204 C0        -398.3841   -93.5168   258.1447 C0            1 RES     
   29205 C0        -399.2993   -92.7418   257.2126 C0            1 RES     
   29206 C0        -398.5825  -100.1833   258.6665 C0            1 RES     
   29207 C0        -397.1748  -100.1441   257.9589 C0            1 RES     
   29208 C0        -395.8860  -100.7804   258.5489 C0            1 RES     
   29209 C0        -394.9985   -99.9380   259.5228 C0            1 RES     
   29210 C0        -393.5055  -100.3338   259.3004 C0            1 RES     
   29211 C0        -392.4407   -99.6017   260.1456 C0            1 RES     
   29212 C0        -391.0326   -99.9429   259.5963 C0            1 RES     
   29213 C0        -389.8936   -99.3160   260.3989 C0            1 RES     
   29214 H4        -400.3033  -101.9196   259.9269 H4            1 RES     
   29215 H5        -399.1600  -103.6774   260.4156 H5            1 RES     
   29216 H4        -404.0683  -100.1176   256.4415 H4            1 RES     
   29217 H6        -401.8712   -98.0823   259.7275 H6            1 RES     
   29218 H6        -402.0812   -98.1278   257.9087 H6            1 RES     
   29219 H6        -404.1191   -97.1082   259.7033 H6            1 RES     
   29220 H6        -404.4457   -96.4328   256.8464 H6            1 RES     
   29221 H6        -404.3741   -98.1318   256.9453 H6            1 RES     
   29222 H6        -406.1473   -98.0376   258.8480 H6            1 RES     
   29223 H6        -406.2129   -96.2556   258.5405 H6            1 RES     
   29224 H6        -406.9697   -96.8055   256.1354 H6            1 RES     
   29225 H6        -406.9403   -98.5512   256.6052 H6            1 RES     
   29226 H6        -408.6419   -96.2957   257.8683 H6            1 RES     
   29227 H6        -408.5682   -97.9847   258.5063 H6            1 RES     
   29228 H6        -409.5569   -97.2264   255.6825 H6            1 RES     
   29229 H6        -409.4785   -98.8849   256.3985 H6            1 RES     
   29230 H6        -411.0530   -98.1570   258.2274 H6            1 RES     
   29231 H6        -411.1494   -96.5167   257.4726 H6            1 RES     
   29232 H6        -411.7756   -97.9583   256.5877 H6            1 RES     
   29233 H6        -402.0588   -95.8557   259.5435 H6            1 RES     
   29234 H6        -401.9457   -96.0014   257.7695 H6            1 RES     
   29235 H6        -403.9156   -94.1089   259.2117 H6            1 RES     
   29236 H6        -402.2413   -93.8220   258.6881 H6            1 RES     
   29237 H6        -402.8624   -94.4056   256.2867 H6            1 RES     
   29238 H6        -404.5903   -94.1967   256.7697 H6            1 RES     
   29239 H6        -403.9107   -91.7968   257.5757 H6            1 RES     
   29240 H6        -402.2496   -92.1924   257.0536 H6            1 RES     
   29241 H6        -403.1438   -92.5956   254.6897 H6            1 RES     
   29242 H6        -404.6715   -91.8212   255.2365 H6            1 RES     
   29243 H6        -403.1407   -90.2586   254.0373 H6            1 RES     
   29244 H6        -401.7883   -90.6566   255.1495 H6            1 RES     
   29245 H6        -402.9784   -89.5598   257.0414 H6            1 RES     
   29246 H6        -404.3777   -89.1805   255.9575 H6            1 RES     
   29247 H6        -402.8748   -87.7893   254.5085 H6            1 RES     
   29248 H6        -401.4692   -88.1830   255.5728 H6            1 RES     
   29249 H6        -402.8466   -87.2166   256.2165 H6            1 RES     
   29250 H6        -401.1279  -101.3508   257.6944 H6            1 RES     
   29251 H6        -401.6909   -99.9389   256.8151 H6            1 RES     
   29252 H6        -399.4308   -99.9696   256.7135 H6            1 RES     
   29253 H6        -400.0419   -97.5940   258.5881 H6            1 RES     
   29254 H6        -400.4231   -97.7636   256.7948 H6            1 RES     
   29255 H6        -397.7005   -97.4079   258.0433 H6            1 RES     
   29256 H6        -398.0859   -97.7660   256.2812 H6            1 RES     
   29257 H6        -397.5978   -95.4892   256.5710 H6            1 RES     
   29258 H6        -399.3645   -95.5606   256.2512 H6            1 RES     
   29259 H6        -398.0666   -95.3971   259.0683 H6            1 RES     
   29260 H6        -399.8003   -95.1151   258.6999 H6            1 RES     
   29261 H6        -397.3400   -93.4504   257.7687 H6            1 RES     
   29262 H6        -398.4189   -93.0281   259.1424 H6            1 RES     
   29263 H6        -398.9491   -91.6897   257.1383 H6            1 RES     
   29264 H6        -400.3078   -92.7481   257.6499 H6            1 RES     
   29265 H6        -399.3180   -93.1798   256.1938 H6            1 RES     
   29266 H6        -398.6010   -99.7041   259.6699 H6            1 RES     
   29267 H6        -398.7349  -101.2687   258.7811 H6            1 RES     
   29268 H6        -397.3477  -100.7068   257.0163 H6            1 RES     
   29269 H6        -396.8419   -99.1618   257.6410 H6            1 RES     
   29270 H6        -395.2673  -100.8649   257.6272 H6            1 RES     
   29271 H6        -396.0303  -101.8207   258.9069 H6            1 RES     
   29272 H6        -395.3281  -100.0763   260.5755 H6            1 RES     
   29273 H6        -395.0705   -98.8576   259.2704 H6            1 RES     
   29274 H6        -393.2748  -100.0962   258.2371 H6            1 RES     
   29275 H6        -393.3776  -101.4276   259.4486 H6            1 RES     
   29276 H6        -392.5288   -99.9149   261.2083 H6            1 RES     
   29277 H6        -392.5823   -98.5010   260.0801 H6            1 RES     
   29278 H6        -390.9543   -99.5739   258.5486 H6            1 RES     
   29279 H6        -390.8827  -101.0442   259.5889 H6            1 RES     
   29280 H6        -389.8884   -99.7090   261.4367 H6            1 RES     
   29281 H6        -389.9826   -98.2098   260.4179 H6            1 RES     
   29282 H6        -388.9222   -99.5790   259.9225 H6            1 RES     
   29283 C0        -409.7825  -103.7688   249.7679 C0            1 RES     
   29284 C1        -410.2481  -104.9166   250.3464 C1            1 RES     
   29285 C1        -410.9822  -104.6981   251.4555 C1            1 RES     
   29286 C1        -411.0276  -103.4382   251.7570 C1            1 RES     
   29287 C1        -410.2436  -102.6514   250.7890 C1            1 RES     
   29288 C1        -409.2247  -102.1713   251.8116 C1            1 RES     
   29289 C1        -409.5683  -102.2743   253.1285 C1            1 RES     
   29290 S2        -411.2915  -102.8191   253.3819 S2            1 RES     
   29291 C1        -408.5960  -102.0223   254.2734 C1            1 RES     
   29292 C1        -407.3643  -101.3356   254.0613 C1            1 RES     
   29293 N3        -406.4761  -101.1269   255.0761 N3            1 RES     
   29294 C1        -406.6866  -101.5689   256.3362 C1            1 RES     
   29295 C1        -407.8554  -102.2661   256.6155 C1            1 RES     
   29296 C1        -408.8198  -102.4892   255.5860 C1            1 RES     
   29297 N3        -409.9172  -103.1947   255.9803 N3            1 RES     
   29298 S2        -409.6129  -103.4834   257.5829 S2            1 RES     
   29299 N3        -408.1458  -102.7697   257.8398 N3            1 RES     
   29300 S2        -411.4492  -106.1004   252.2409 S2            1 RES     
   29301 C1        -410.6833  -107.0821   251.0934 C1            1 RES     
   29302 C1        -410.0320  -106.2895   250.1405 C1            1 RES     
   29303 C0        -410.4399  -103.6895   248.3064 C0            1 RES     
   29304 C0        -411.5552  -104.3538   247.3528 C0            1 RES     
   29305 C0        -411.5093  -105.9082   247.2133 C0            1 RES     
   29306 C0        -412.8437  -106.5464   247.6436 C0            1 RES     
   29307 C0        -412.8147  -108.0839   247.7127 C0            1 RES     
   29308 C0        -414.2256  -108.6086   248.0404 C0            1 RES     
   29309 C0        -414.2534  -110.1152   248.3265 C0            1 RES     
   29310 C0        -415.6832  -110.5824   248.6090 C0            1 RES     
   29311 C0        -411.3301  -103.6680   245.9323 C0            1 RES     
   29312 C0        -412.1243  -103.9422   244.6167 C0            1 RES     
   29313 C0        -411.6908  -105.1670   243.7540 C0            1 RES     
   29314 C0        -411.9890  -104.9353   242.2407 C0            1 RES     
   29315 C0        -411.4843  -106.0726   241.3284 C0            1 RES     
   29316 C0        -411.3040  -105.6624   239.8436 C0            1 RES     
   29317 C0        -412.5652  -105.1388   239.1412 C0            1 RES     
   29318 C0        -412.2688  -104.8102   237.6715 C0            1 RES     
   29319 C0        -408.2175  -103.8213   249.4198 C0            1 RES     
   29320 C0        -407.3587  -102.7464   248.5291 C0            1 RES     
   29321 C0        -407.8770  -102.6171   247.0406 C0            1 RES     
   29322 C0        -407.0037  -101.9152   246.0056 C0            1 RES     
   29323 C0        -407.5132  -101.9819   244.5546 C0            1 RES     
   29324 C0        -408.7433  -101.0854   244.3029 C0            1 RES     
   29325 C0        -408.9223  -100.7485   242.8114 C0            1 RES     
   29326 C0        -409.2763  -101.9473   241.9485 C0            1 RES     
   29327 C0        -406.9226  -101.3495   249.1670 C0            1 RES     
   29328 C0        -405.5196  -100.8759   248.6272 C0            1 RES     
   29329 C0        -404.7461   -99.6453   249.1758 C0            1 RES     
   29330 C0        -405.0335   -98.2331   248.5684 C0            1 RES     
   29331 C0        -403.7079   -97.4098   248.5794 C0            1 RES     
   29332 C0        -403.7519   -95.9806   247.9966 C0            1 RES     
   29333 C0        -402.3054   -95.4418   247.8613 C0            1 RES     
   29334 C0        -402.2327   -94.0049   247.3470 C0            1 RES     
   29335 H4        -408.2573  -101.8582   251.5173 H4            1 RES     
   29336 H5        -407.1098  -100.9407   253.0913 H5            1 RES     
   29337 H4        -409.4164  -106.7152   249.3640 H4            1 RES     
   29338 H6        -410.6458  -102.6024   248.2060 H6            1 RES     
   29339 H6        -409.6609  -104.0484   247.6644 H6            1 RES     
   29340 H6        -412.5609  -104.0504   247.7182 H6            1 RES     
   29341 H6        -411.2870  -106.2257   246.1788 H6            1 RES     
   29342 H6        -410.6712  -106.3188   247.7642 H6            1 RES     
   29343 H6        -413.1112  -106.1770   248.6581 H6            1 RES     
   29344 H6        -413.6257  -106.2179   246.9238 H6            1 RES     
   29345 H6        -412.4775  -108.5224   246.7476 H6            1 RES     
   29346 H6        -412.1012  -108.3862   248.5108 H6            1 RES     
   29347 H6        -414.8961  -108.3796   247.1819 H6            1 RES     
   29348 H6        -414.6130  -108.0860   248.9422 H6            1 RES     
   29349 H6        -413.8526  -110.6848   247.4609 H6            1 RES     
   29350 H6        -413.6251  -110.3286   249.2190 H6            1 RES     
   29351 H6        -416.1148  -110.0227   249.4670 H6            1 RES     
   29352 H6        -416.3243  -110.4212   247.7158 H6            1 RES     
   29353 H6        -415.6879  -111.6646   248.8570 H6            1 RES     
   29354 H6        -411.4851  -102.5840   246.1270 H6            1 RES     
   29355 H6        -410.2650  -103.7874   245.6330 H6            1 RES     
   29356 H6        -413.2234  -103.8840   244.7496 H6            1 RES     
   29357 H6        -411.8382  -103.0643   243.9950 H6            1 RES     
   29358 H6        -410.5851  -105.2765   243.8259 H6            1 RES     
   29359 H6        -412.1656  -106.1000   244.1199 H6            1 RES     
   29360 H6        -413.0697  -104.7559   242.0591 H6            1 RES     
   29361 H6        -411.4430  -104.0298   241.9362 H6            1 RES     
   29362 H6        -410.4702  -106.3814   241.6645 H6            1 RES     
   29363 H6        -412.1584  -106.9503   241.4222 H6            1 RES     
   29364 H6        -410.9299  -106.5510   239.2882 H6            1 RES     
   29365 H6        -410.5198  -104.8747   239.7842 H6            1 RES     
   29366 H6        -412.9156  -104.2120   239.6427 H6            1 RES     
   29367 H6        -413.3688  -105.9030   239.1823 H6            1 RES     
   29368 H6        -411.9435  -105.7223   237.1258 H6            1 RES     
   29369 H6        -411.4684  -104.0427   237.5915 H6            1 RES     
   29370 H6        -413.1818  -104.4148   237.1776 H6            1 RES     
   29371 H6        -407.6749  -103.9464   250.3825 H6            1 RES     
   29372 H6        -408.0500  -104.7845   248.8856 H6            1 RES     
   29373 H6        -406.3970  -103.2994   248.4593 H6            1 RES     
   29374 H6        -408.8491  -102.0889   247.0264 H6            1 RES     
   29375 H6        -407.9538  -103.6505   246.6396 H6            1 RES     
   29376 H6        -406.9477  -100.8362   246.2336 H6            1 RES     
   29377 H6        -406.0048  -102.4020   246.0318 H6            1 RES     
   29378 H6        -406.6810  -101.5732   243.9433 H6            1 RES     
   29379 H6        -407.6931  -103.0303   244.2278 H6            1 RES     
   29380 H6        -408.5732  -100.1072   244.8004 H6            1 RES     
   29381 H6        -409.6629  -101.5318   244.7366 H6            1 RES     
   29382 H6        -407.9867  -100.2867   242.4275 H6            1 RES     
   29383 H6        -409.7384  -100.0008   242.7093 H6            1 RES     
   29384 H6        -409.3740  -101.6266   240.8891 H6            1 RES     
   29385 H6        -410.2467  -102.3334   242.2914 H6            1 RES     
   29386 H6        -408.5033  -102.7407   242.0067 H6            1 RES     
   29387 H6        -407.7272  -100.5876   249.0726 H6            1 RES     
   29388 H6        -406.6991  -101.5091   250.2343 H6            1 RES     
   29389 H6        -404.8552  -101.7372   248.8550 H6            1 RES     
   29390 H6        -405.4544  -100.7494   247.5518 H6            1 RES     
   29391 H6        -403.7176   -99.8849   248.8232 H6            1 RES     
   29392 H6        -404.6827   -99.6204   250.2833 H6            1 RES     
   29393 H6        -405.8581   -97.7285   249.1173 H6            1 RES     
   29394 H6        -405.3274   -98.3272   247.5002 H6            1 RES     
   29395 H6        -402.9825   -97.9778   247.9538 H6            1 RES     
   29396 H6        -403.3061   -97.3529   249.6139 H6            1 RES     
   29397 H6        -404.3493   -95.3239   248.6653 H6            1 RES     
   29398 H6        -404.2165   -95.9871   246.9867 H6            1 RES     
   29399 H6        -401.7446   -96.0875   247.1483 H6            1 RES     
   29400 H6        -401.7900   -95.4815   248.8453 H6            1 RES     
   29401 H6        -402.7202   -93.3115   248.0633 H6            1 RES     
   29402 H6        -402.7143   -93.9142   246.3513 H6            1 RES     
   29403 H6        -401.1649   -93.7061   247.2457 H6            1 RES     
   29404 C0        -407.9723  -115.8724   251.5042 C0            1 RES     
   29405 C1        -408.2290  -115.9259   252.8458 C1            1 RES     
   29406 C1        -409.5024  -115.6159   253.1606 C1            1 RES     
   29407 C1        -410.1836  -115.2746   252.1117 C1            1 RES     
   29408 C1        -409.3324  -115.3238   250.9101 C1            1 RES     
   29409 C1        -409.4242  -113.8316   250.6287 C1            1 RES     
   29410 C1        -410.4336  -113.1441   251.2381 C1            1 RES     
   29411 S2        -411.5923  -114.2222   252.1467 S2            1 RES     
   29412 C1        -410.5489  -111.6255   251.2173 C1            1 RES     
   29413 C1        -409.8114  -110.8396   250.2834 C1            1 RES     
   29414 N3        -409.8898  -109.4772   250.2735 N3            1 RES     
   29415 C1        -410.6462  -108.7808   251.1511 C1            1 RES     
   29416 C1        -411.3771  -109.4766   252.1059 C1            1 RES     
   29417 C1        -411.3377  -110.9039   252.1382 C1            1 RES     
   29418 N3        -412.0862  -111.4696   253.1268 N3            1 RES     
   29419 S2        -412.7493  -110.1543   253.8848 S2            1 RES     
   29420 N3        -412.1448  -108.8685   253.0428 N3            1 RES     
   29421 S2        -409.7931  -115.5548   254.8077 S2            1 RES     
   29422 C1        -408.1925  -115.9660   255.1769 C1            1 RES     
   29423 C1        -407.4455  -116.0953   253.9997 C1            1 RES     
   29424 C0        -407.5650  -117.3574   251.0530 C0            1 RES     
   29425 C0        -407.5149  -118.8901   251.5456 C0            1 RES     
   29426 C0        -406.8242  -119.1525   252.9210 C0            1 RES     
   29427 C0        -407.7851  -119.8479   253.9039 C0            1 RES     
   29428 C0        -407.2402  -119.9713   255.3383 C0            1 RES     
   29429 C0        -408.2336  -120.7784   256.1959 C0            1 RES     
   29430 C0        -407.8728  -120.7827   257.6866 C0            1 RES     
   29431 C0        -408.8728  -121.6277   258.4793 C0            1 RES     
   29432 C0        -406.7399  -119.6602   250.3859 C0            1 RES     
   29433 C0        -406.3873  -121.1801   250.3357 C0            1 RES     
   29434 C0        -405.1039  -121.6485   251.0880 C0            1 RES     
   29435 C0        -404.4701  -122.9030   250.4119 C0            1 RES     
   29436 C0        -403.1389  -123.3466   251.0534 C0            1 RES     
   29437 C0        -402.2540  -124.2280   250.1339 C0            1 RES     
   29438 C0        -402.8978  -125.5338   249.6454 C0            1 RES     
   29439 C0        -401.9110  -126.3345   248.7846 C0            1 RES     
   29440 C0        -406.6460  -115.0458   251.1426 C0            1 RES     
   29441 C0        -405.8963  -114.9521   249.6881 C0            1 RES     
   29442 C0        -405.3937  -116.3539   249.1559 C0            1 RES     
   29443 C0        -404.4079  -116.3997   247.9928 C0            1 RES     
   29444 C0        -403.8499  -117.7933   247.6522 C0            1 RES     
   29445 C0        -404.8857  -118.7100   246.9689 C0            1 RES     
   29446 C0        -404.2208  -119.8535   246.1813 C0            1 RES     
   29447 C0        -403.4972  -120.8627   247.0559 C0            1 RES     
   29448 C0        -406.4976  -114.0215   248.5388 C0            1 RES     
   29449 C0        -405.3610  -113.3774   247.6573 C0            1 RES     
   29450 C0        -405.6105  -112.2982   246.5679 C0            1 RES     
   29451 C0        -405.9597  -112.7523   245.1127 C0            1 RES     
   29452 C0        -405.3438  -111.7256   244.1119 C0            1 RES     
   29453 C0        -405.5443  -111.9919   242.6042 C0            1 RES     
   29454 C0        -404.6492  -111.0215   241.7930 C0            1 RES     
   29455 C0        -404.8131  -111.1574   240.2799 C0            1 RES     
   29456 H4        -408.6834  -113.3336   250.0598 H4            1 RES     
   29457 H5        -409.1847  -111.3051   249.5403 H5            1 RES     
   29458 H4        -406.3824  -116.2764   254.0116 H4            1 RES     
   29459 H6        -408.0483  -117.4348   250.0555 H6            1 RES     
   29460 H6        -406.4948  -117.3214   251.0190 H6            1 RES     
   29461 H6        -408.5536  -119.2867   251.5780 H6            1 RES     
   29462 H6        -405.9177  -119.7754   252.8180 H6            1 RES     
   29463 H6        -406.4248  -118.2327   253.3320 H6            1 RES     
   29464 H6        -408.7301  -119.2639   253.9607 H6            1 RES     
   29465 H6        -408.0114  -120.8595   253.5003 H6            1 RES     
   29466 H6        -406.2513  -120.4806   255.3492 H6            1 RES     
   29467 H6        -407.1194  -118.9480   255.7574 H6            1 RES     
   29468 H6        -408.2603  -121.8242   255.8157 H6            1 RES     
   29469 H6        -409.2497  -120.3383   256.0952 H6            1 RES     
   29470 H6        -406.8521  -121.1935   257.8405 H6            1 RES     
   29471 H6        -407.9021  -119.7398   258.0720 H6            1 RES     
   29472 H6        -409.9067  -121.2447   258.3376 H6            1 RES     
   29473 H6        -408.8327  -122.6865   258.1441 H6            1 RES     
   29474 H6        -408.6291  -121.5900   259.5618 H6            1 RES     
   29475 H6        -407.3672  -119.4928   249.4829 H6            1 RES     
   29476 H6        -405.7680  -119.1526   250.1955 H6            1 RES     
   29477 H6        -407.2582  -121.8374   250.5317 H6            1 RES     
   29478 H6        -406.1300  -121.3151   249.2611 H6            1 RES     
   29479 H6        -404.3349  -120.8471   251.0080 H6            1 RES     
   29480 H6        -405.3159  -121.8328   252.1607 H6            1 RES     
   29481 H6        -405.1801  -123.7564   250.3852 H6            1 RES     
   29482 H6        -404.2359  -122.6292   249.3722 H6            1 RES     
   29483 H6        -402.5224  -122.4454   251.2645 H6            1 RES     
   29484 H6        -403.3438  -123.8555   252.0191 H6            1 RES     
   29485 H6        -401.3245  -124.4764   250.6926 H6            1 RES     
   29486 H6        -401.9601  -123.6299   249.2423 H6            1 RES     
   29487 H6        -403.7918  -125.3026   249.0285 H6            1 RES     
   29488 H6        -403.2027  -126.1554   250.5126 H6            1 RES     
   29489 H6        -401.0128  -126.6127   249.3775 H6            1 RES     
   29490 H6        -401.5857  -125.7423   247.9017 H6            1 RES     
   29491 H6        -402.3921  -127.2673   248.4210 H6            1 RES     
   29492 H6        -406.8108  -114.0011   251.4865 H6            1 RES     
   29493 H6        -405.8463  -115.4312   251.8157 H6            1 RES     
   29494 H6        -404.9775  -114.4068   249.9949 H6            1 RES     
   29495 H6        -406.2591  -116.9694   248.8451 H6            1 RES     
   29496 H6        -404.8205  -116.8220   249.9846 H6            1 RES     
   29497 H6        -404.9063  -116.0635   247.0666 H6            1 RES     
   29498 H6        -403.5464  -115.7520   248.2646 H6            1 RES     
   29499 H6        -403.0443  -117.6025   246.9119 H6            1 RES     
   29500 H6        -403.3887  -118.2817   248.5395 H6            1 RES     
   29501 H6        -405.4326  -118.1156   246.2066 H6            1 RES     
   29502 H6        -405.6296  -119.0923   247.6993 H6            1 RES     
   29503 H6        -403.5020  -119.4227   245.4508 H6            1 RES     
   29504 H6        -405.0042  -120.3963   245.6093 H6            1 RES     
   29505 H6        -403.0343  -121.6445   246.4159 H6            1 RES     
   29506 H6        -404.2431  -121.3373   247.7092 H6            1 RES     
   29507 H6        -402.7002  -120.3868   247.6630 H6            1 RES     
   29508 H6        -407.2829  -114.5492   247.9543 H6            1 RES     
   29509 H6        -406.9368  -113.1271   249.0097 H6            1 RES     
   29510 H6        -404.7187  -112.8642   248.4051 H6            1 RES     
   29511 H6        -404.7028  -114.0823   247.1605 H6            1 RES     
   29512 H6        -404.5873  -111.8689   246.4768 H6            1 RES     
   29513 H6        -406.2543  -111.4626   246.9123 H6            1 RES     
   29514 H6        -407.0585  -112.8678   244.9890 H6            1 RES     
   29515 H6        -405.4757  -113.7278   244.8883 H6            1 RES     
   29516 H6        -404.2440  -111.7412   244.2861 H6            1 RES     
   29517 H6        -405.7181  -110.7042   244.3389 H6            1 RES     
   29518 H6        -406.6138  -111.8461   242.3392 H6            1 RES     
   29519 H6        -405.2475  -113.0328   242.3508 H6            1 RES     
   29520 H6        -403.5822  -111.2228   242.0394 H6            1 RES     
   29521 H6        -404.8776  -109.9698   242.0706 H6            1 RES     
   29522 H6        -405.8484  -110.8973   239.9770 H6            1 RES     
   29523 H6        -404.5727  -112.1879   239.9450 H6            1 RES     
   29524 H6        -404.1150  -110.4545   239.7717 H6            1 RES     
   29525 C0        -403.3085  -114.9023   262.9101 C0            1 RES     
   29526 C1        -404.2906  -114.1310   263.4663 C1            1 RES     
   29527 C1        -405.4877  -114.7476   263.5251 C1            1 RES     
   29528 C1        -405.4466  -115.9223   262.9783 C1            1 RES     
   29529 C1        -404.0971  -116.1961   262.4541 C1            1 RES     
   29530 C1        -404.5390  -116.2730   261.0004 C1            1 RES     
   29531 C1        -405.8715  -116.4501   260.7634 C1            1 RES     
   29532 S2        -406.8405  -116.7386   262.2827 S2            1 RES     
   29533 C1        -406.4992  -116.3543   259.3789 C1            1 RES     
   29534 C1        -405.7012  -116.4114   258.1985 C1            1 RES     
   29535 N3        -406.2523  -116.3018   256.9548 N3            1 RES     
   29536 C1        -407.5756  -116.1122   256.7543 C1            1 RES     
   29537 C1        -408.4150  -116.0243   257.8578 C1            1 RES     
   29538 C1        -407.8810  -116.1530   259.1761 C1            1 RES     
   29539 N3        -408.8013  -116.0369   260.1746 N3            1 RES     
   29540 S2        -410.2144  -115.7904   259.3458 S2            1 RES     
   29541 N3        -409.7500  -115.8113   257.7610 N3            1 RES     
   29542 S2        -406.7229  -113.7678   264.0866 S2            1 RES     
   29543 C1        -405.6791  -112.4508   264.2944 C1            1 RES     
   29544 C1        -404.3879  -112.7893   263.8718 C1            1 RES     
   29545 C0        -402.1998  -115.1284   264.0477 C0            1 RES     
   29546 C0        -401.9016  -114.9351   265.6188 C0            1 RES     
   29547 C0        -402.1652  -113.5114   266.2030 C0            1 RES     
   29548 C0        -403.1828  -113.5623   267.3583 C0            1 RES     
   29549 C0        -403.6357  -112.1800   267.8618 C0            1 RES     
   29550 C0        -404.5579  -112.3566   269.0832 C0            1 RES     
   29551 C0        -405.2180  -111.0463   269.5304 C0            1 RES     
   29552 C0        -406.0911  -111.2786   270.7658 C0            1 RES     
   29553 C0        -400.3651  -115.3220   265.7871 C0            1 RES     
   29554 C0        -399.5275  -115.3047   267.1043 C0            1 RES     
   29555 C0        -398.9192  -113.9411   267.5548 C0            1 RES     
   29556 C0        -397.5993  -114.1419   268.3612 C0            1 RES     
   29557 C0        -396.8986  -112.8211   268.7420 C0            1 RES     
   29558 C0        -395.3916  -112.9751   269.0747 C0            1 RES     
   29559 C0        -395.0606  -113.9313   270.2297 C0            1 RES     
   29560 C0        -393.5482  -113.9630   270.4893 C0            1 RES     
   29561 C0        -402.4649  -114.1400   261.7786 C0            1 RES     
   29562 C0        -401.0840  -114.6462   261.0552 C0            1 RES     
   29563 C0        -399.8896  -114.8537   262.0708 C0            1 RES     
   29564 C0        -398.4710  -115.0066   261.5317 C0            1 RES     
   29565 C0        -397.3584  -115.0384   262.5951 C0            1 RES     
   29566 C0        -397.3254  -116.3554   263.3979 C0            1 RES     
   29567 C0        -395.9563  -116.6002   264.0580 C0            1 RES     
   29568 C0        -395.6146  -115.6040   265.1525 C0            1 RES     
   29569 C0        -401.1429  -115.7634   259.9164 C0            1 RES     
   29570 C0        -400.0458  -115.5252   258.8103 C0            1 RES     
   29571 C0        -399.9503  -116.3381   257.4897 C0            1 RES     
   29572 C0        -399.1349  -117.6726   257.4747 C0            1 RES     
   29573 C0        -398.4696  -117.8311   256.0721 C0            1 RES     
   29574 C0        -397.5874  -119.0766   255.8385 C0            1 RES     
   29575 C0        -396.8225  -118.9144   254.5008 C0            1 RES     
   29576 C0        -395.9594  -120.1220   254.1385 C0            1 RES     
   29577 H4        -403.8563  -116.1039   260.2095 H4            1 RES     
   29578 H5        -404.6361  -116.5659   258.2565 H5            1 RES     
   29579 H4        -403.5856  -112.0691   263.8451 H4            1 RES     
   29580 H6        -401.8976  -116.1822   263.8674 H6            1 RES     
   29581 H6        -401.4444  -114.4088   263.8042 H6            1 RES     
   29582 H6        -402.5010  -115.6792   266.1881 H6            1 RES     
   29583 H6        -401.2389  -113.0365   266.5730 H6            1 RES     
   29584 H6        -402.4773  -112.8275   265.4222 H6            1 RES     
   29585 H6        -404.0932  -114.1015   267.0155 H6            1 RES     
   29586 H6        -402.7205  -114.1329   268.1940 H6            1 RES     
   29587 H6        -402.7636  -111.5529   268.1509 H6            1 RES     
   29588 H6        -404.1856  -111.6698   267.0403 H6            1 RES     
   29589 H6        -403.9579  -112.7769   269.9213 H6            1 RES     
   29590 H6        -405.3686  -113.0751   268.8322 H6            1 RES     
   29591 H6        -404.4476  -110.2831   269.7719 H6            1 RES     
   29592 H6        -405.8593  -110.6615   268.7072 H6            1 RES     
   29593 H6        -406.8679  -112.0457   270.5566 H6            1 RES     
   29594 H6        -405.4672  -111.6223   271.6188 H6            1 RES     
   29595 H6        -406.5982  -110.3346   271.0563 H6            1 RES     
   29596 H6        -400.3118  -116.3774   265.4404 H6            1 RES     
   29597 H6        -399.7566  -114.7226   265.0739 H6            1 RES     
   29598 H6        -400.0139  -115.8491   267.9386 H6            1 RES     
   29599 H6        -398.6392  -115.9091   266.8131 H6            1 RES     
   29600 H6        -398.6283  -113.3664   266.6465 H6            1 RES     
   29601 H6        -399.6569  -113.3467   268.1312 H6            1 RES     
   29602 H6        -397.7644  -114.7583   269.2699 H6            1 RES     
   29603 H6        -396.8992  -114.6862   267.7096 H6            1 RES     
   29604 H6        -396.9295  -112.1320   267.8697 H6            1 RES     
   29605 H6        -397.4461  -112.3388   269.5793 H6            1 RES     
   29606 H6        -394.9930  -111.9663   269.3221 H6            1 RES     
   29607 H6        -394.8603  -113.3320   268.1640 H6            1 RES     
   29608 H6        -395.3925  -114.9592   269.9717 H6            1 RES     
   29609 H6        -395.5761  -113.6023   271.1558 H6            1 RES     
   29610 H6        -393.1814  -112.9552   270.7816 H6            1 RES     
   29611 H6        -392.9980  -114.2928   269.5812 H6            1 RES     
   29612 H6        -393.3175  -114.6711   271.3133 H6            1 RES     
   29613 H6        -403.1761  -113.8781   260.9648 H6            1 RES     
   29614 H6        -402.1766  -113.1566   262.2154 H6            1 RES     
   29615 H6        -400.8311  -113.7247   260.4873 H6            1 RES     
   29616 H6        -400.0769  -115.7499   262.6920 H6            1 RES     
   29617 H6        -399.8245  -113.9262   262.6791 H6            1 RES     
   29618 H6        -398.3755  -115.9684   260.9976 H6            1 RES     
   29619 H6        -398.2744  -114.1368   260.8682 H6            1 RES     
   29620 H6        -396.4121  -114.9852   262.0163 H6            1 RES     
   29621 H6        -397.3999  -114.1492   263.2629 H6            1 RES     
   29622 H6        -397.4594  -117.2015   262.6911 H6            1 RES     
   29623 H6        -398.1519  -116.3970   264.1382 H6            1 RES     
   29624 H6        -395.1651  -116.5700   263.2776 H6            1 RES     
   29625 H6        -395.9530  -117.6167   264.5077 H6            1 RES     
   29626 H6        -394.6106  -115.8380   265.5675 H6            1 RES     
   29627 H6        -396.3613  -115.7136   265.9518 H6            1 RES     
   29628 H6        -395.6053  -114.5615   264.7738 H6            1 RES     
   29629 H6        -401.1388  -116.7882   260.3482 H6            1 RES     
   29630 H6        -402.0682  -115.6193   259.3354 H6            1 RES     
   29631 H6        -400.2446  -114.4847   258.4742 H6            1 RES     
   29632 H6        -399.0214  -115.5127   259.1672 H6            1 RES     
   29633 H6        -399.3378  -115.6424   256.8730 H6            1 RES     
   29634 H6        -400.9194  -116.4329   256.9576 H6            1 RES     
   29635 H6        -399.7843  -118.5341   257.7429 H6            1 RES     
   29636 H6        -398.2995  -117.6202   258.2065 H6            1 RES     
   29637 H6        -397.8022  -116.9492   255.9418 H6            1 RES     
   29638 H6        -399.2470  -117.7999   255.2786 H6            1 RES     
   29639 H6        -398.2261  -119.9858   255.8123 H6            1 RES     
   29640 H6        -396.8409  -119.1825   256.6554 H6            1 RES     
   29641 H6        -396.1537  -118.0270   254.5724 H6            1 RES     
   29642 H6        -397.5401  -118.7426   253.6696 H6            1 RES     
   29643 H6        -396.5932  -121.0204   253.9876 H6            1 RES     
   29644 H6        -395.2062  -120.3236   254.9283 H6            1 RES     
   29645 H6        -395.4193  -119.9136   253.1874 H6            1 RES     
   29646 C0        -407.3987  -103.4367   265.0544 C0            1 RES     
   29647 C1        -408.7103  -103.6224   264.7168 C1            1 RES     
   29648 C1        -409.3555  -104.4848   265.5273 C1            1 RES     
   29649 C1        -408.5585  -104.9930   266.4143 C1            1 RES     
   29650 C1        -407.1932  -104.4684   266.2365 C1            1 RES     
   29651 C1        -406.5826  -105.8184   265.8918 C1            1 RES     
   29652 C1        -407.3031  -106.9299   266.2213 C1            1 RES     
   29653 S2        -408.8051  -106.5535   267.1871 S2            1 RES     
   29654 C1        -406.9285  -108.3374   265.7758 C1            1 RES     
   29655 C1        -405.6262  -108.6339   265.2760 C1            1 RES     
   29656 N3        -405.2893  -109.8865   264.8518 N3            1 RES     
   29657 C1        -406.1610  -110.9197   264.8544 C1            1 RES     
   29658 C1        -407.4564  -110.7027   265.3071 C1            1 RES     
   29659 C1        -407.8439  -109.4111   265.7776 C1            1 RES     
   29660 N3        -409.1419  -109.3213   266.1835 N3            1 RES     
   29661 S2        -409.7122  -110.8568   265.9352 S2            1 RES     
   29662 N3        -408.4085  -111.6671   265.3257 N3            1 RES     
   29663 S2        -410.9242  -104.8154   265.0465 S2            1 RES     
   29664 C1        -410.8078  -103.7814   263.7106 C1            1 RES     
   29665 C1        -409.5216  -103.2327   263.6379 C1            1 RES     
   29666 C0        -407.2379  -101.8891   265.4461 C0            1 RES     
   29667 C0        -408.0638  -100.5400   265.7504 C0            1 RES     
   29668 C0        -409.1311  -100.1278   264.6880 C0            1 RES     
   29669 C0        -410.5316  -100.0143   265.3195 C0            1 RES     
   29670 C0        -411.6664   -99.7954   264.3027 C0            1 RES     
   29671 C0        -412.9944   -99.5849   265.0548 C0            1 RES     
   29672 C0        -414.2130   -99.5582   264.1237 C0            1 RES     
   29673 C0        -415.4947   -99.3107   264.9226 C0            1 RES     
   29674 C0        -406.9507   -99.4073   265.8790 C0            1 RES     
   29675 C0        -407.1792   -97.8886   266.1582 C0            1 RES     
   29676 C0        -407.5330   -96.9766   264.9436 C0            1 RES     
   29677 C0        -407.0309   -95.5158   265.1593 C0            1 RES     
   29678 C0        -407.2618   -94.5951   263.9430 C0            1 RES     
   29679 C0        -406.3559   -93.3365   263.9187 C0            1 RES     
   29680 C0        -406.4800   -92.4051   265.1334 C0            1 RES     
   29681 C0        -405.5706   -91.1795   264.9704 C0            1 RES     
   29682 C0        -406.3968  -103.5642   263.8083 C0            1 RES     
   29683 C0        -404.8017  -103.1889   263.7703 C0            1 RES     
   29684 C0        -404.5132  -101.6666   264.0872 C0            1 RES     
   29685 C0        -403.1350  -101.0897   263.7800 C0            1 RES     
   29686 C0        -402.9977   -99.5679   263.9666 C0            1 RES     
   29687 C0        -402.9810   -99.1384   265.4483 C0            1 RES     
   29688 C0        -402.3387   -97.7533   265.6453 C0            1 RES     
   29689 C0        -403.1381   -96.6130   265.0390 C0            1 RES     
   29690 C0        -403.7329  -104.1805   264.4204 C0            1 RES     
   29691 C0        -402.3760  -104.1805   263.6187 C0            1 RES     
   29692 C0        -401.2001  -105.1568   263.8976 C0            1 RES     
   29693 C0        -400.1291  -104.7715   264.9701 C0            1 RES     
   29694 C0        -398.7460  -105.3306   264.5124 C0            1 RES     
   29695 C0        -397.5270  -105.0436   265.4158 C0            1 RES     
   29696 C0        -396.2324  -105.4475   264.6664 C0            1 RES     
   29697 C0        -394.9619  -105.2606   265.4943 C0            1 RES     
   29698 H4        -405.6830  -105.8888   265.3385 H4            1 RES     
   29699 H5        -404.8605  -107.8762   265.2404 H5            1 RES     
   29700 H4        -409.2102  -102.6073   262.8164 H4            1 RES     
   29701 H6        -406.5276  -101.9408   266.2988 H6            1 RES     
   29702 H6        -406.8261  -101.4505   264.5596 H6            1 RES     
   29703 H6        -408.5573  -100.6420   266.7419 H6            1 RES     
   29704 H6        -408.8858   -99.1649   264.2053 H6            1 RES     
   29705 H6        -409.1228  -100.8136   263.8489 H6            1 RES     
   29706 H6        -410.7588  -100.9550   265.8679 H6            1 RES     
   29707 H6        -410.5104   -99.1714   266.0451 H6            1 RES     
   29708 H6        -411.4655   -98.9086   263.6621 H6            1 RES     
   29709 H6        -411.7352  -100.6964   263.6538 H6            1 RES     
   29710 H6        -412.9339   -98.6262   265.6173 H6            1 RES     
   29711 H6        -413.1421  -100.4136   265.7812 H6            1 RES     
   29712 H6        -414.1040   -98.7584   263.3603 H6            1 RES     
   29713 H6        -414.2984  -100.5391   263.6066 H6            1 RES     
   29714 H6        -415.6265  -100.0924   265.7019 H6            1 RES     
   29715 H6        -415.4549   -98.3153   265.4153 H6            1 RES     
   29716 H6        -416.3752   -99.3358   264.2469 H6            1 RES     
   29717 H6        -406.3117   -99.7496   266.7224 H6            1 RES     
   29718 H6        -406.3093   -99.4197   264.9697 H6            1 RES     
   29719 H6        -407.8297   -97.6986   267.0356 H6            1 RES     
   29720 H6        -406.1571   -97.5581   266.4502 H6            1 RES     
   29721 H6        -406.9849   -97.3505   264.0493 H6            1 RES     
   29722 H6        -408.6210   -97.0013   264.7304 H6            1 RES     
   29723 H6        -407.4760   -95.0600   266.0688 H6            1 RES     
   29724 H6        -405.9416   -95.5644   265.3075 H6            1 RES     
   29725 H6        -407.0028   -95.1512   263.0154 H6            1 RES     
   29726 H6        -408.3355   -94.3166   263.8870 H6            1 RES     
   29727 H6        -406.6010   -92.7585   263.0002 H6            1 RES     
   29728 H6        -405.2947   -93.6627   263.8371 H6            1 RES     
   29729 H6        -406.1747   -92.9469   266.0534 H6            1 RES     
   29730 H6        -407.5291   -92.0605   265.2431 H6            1 RES     
   29731 H6        -405.8650   -90.5917   264.0741 H6            1 RES     
   29732 H6        -404.5079   -91.4874   264.8611 H6            1 RES     
   29733 H6        -405.6533   -90.5220   265.8618 H6            1 RES     
   29734 H6        -406.4914  -104.6022   263.4206 H6            1 RES     
   29735 H6        -406.8257  -102.9307   262.9984 H6            1 RES     
   29736 H6        -404.6167  -103.3031   262.6802 H6            1 RES     
   29737 H6        -404.6943  -101.4659   265.1601 H6            1 RES     
   29738 H6        -405.1825  -101.0722   263.4291 H6            1 RES     
   29739 H6        -402.3862  -101.5246   264.4653 H6            1 RES     
   29740 H6        -402.9116  -101.3174   262.7152 H6            1 RES     
   29741 H6        -402.0012   -99.3197   263.5436 H6            1 RES     
   29742 H6        -403.7639   -99.0096   263.3838 H6            1 RES     
   29743 H6        -402.3294   -99.8404   266.0105 H6            1 RES     
   29744 H6        -403.9970   -99.1874   265.8935 H6            1 RES     
   29745 H6        -401.3186   -97.7586   265.2034 H6            1 RES     
   29746 H6        -402.2372   -97.5581   266.7349 H6            1 RES     
   29747 H6        -402.6047   -95.6533   265.2100 H6            1 RES     
   29748 H6        -404.1094   -96.5733   265.5522 H6            1 RES     
   29749 H6        -403.2839   -96.7456   263.9474 H6            1 RES     
   29750 H6        -403.6168  -103.9986   265.5114 H6            1 RES     
   29751 H6        -404.0764  -105.2154   264.2608 H6            1 RES     
   29752 H6        -402.6926  -104.4268   262.5822 H6            1 RES     
   29753 H6        -401.8836  -103.2171   263.5390 H6            1 RES     
   29754 H6        -400.6506  -105.0856   262.9320 H6            1 RES     
   29755 H6        -401.5162  -106.2171   263.9828 H6            1 RES     
   29756 H6        -400.4295  -105.1370   265.9760 H6            1 RES     
   29757 H6        -400.0131  -103.6666   265.0172 H6            1 RES     
   29758 H6        -398.5249  -104.8518   263.5315 H6            1 RES     
   29759 H6        -398.8142  -106.4287   264.3565 H6            1 RES     
   29760 H6        -397.6220  -105.6174   266.3628 H6            1 RES     
   29761 H6        -397.4671  -103.9594   265.6542 H6            1 RES     
   29762 H6        -396.1361  -104.8233   263.7493 H6            1 RES     
   29763 H6        -396.2876  -106.5136   264.3569 H6            1 RES     
   29764 H6        -394.9809  -105.9185   266.3878 H6            1 RES     
   29765 H6        -394.8453  -104.2031   265.8104 H6            1 RES     
   29766 H6        -394.0783  -105.5386   264.8765 H6            1 RES     
   29767 C0        -415.7992  -103.2984   255.9879 C0            1 RES     
   29768 C1        -416.4403  -104.4681   256.2870 C1            1 RES     
   29769 C1        -417.0699  -104.4447   257.4785 C1            1 RES     
   29770 C1        -416.8693  -103.3261   258.1022 C1            1 RES     
   29771 C1        -415.9997  -102.4439   257.3045 C1            1 RES     
   29772 C1        -414.8639  -102.4368   258.3166 C1            1 RES     
   29773 C1        -415.1595  -102.8391   259.5869 C1            1 RES     
   29774 S2        -416.9399  -103.1418   259.8499 S2            1 RES     
   29775 C1        -414.1056  -103.0740   260.6612 C1            1 RES     
   29776 C1        -412.7799  -102.5674   260.5213 C1            1 RES     
   29777 N3        -411.8227  -102.7938   261.4672 N3            1 RES     
   29778 C1        -412.0524  -103.5236   262.5816 C1            1 RES     
   29779 C1        -413.3151  -104.0689   262.7774 C1            1 RES     
   29780 C1        -414.3505  -103.8396   261.8209 C1            1 RES     
   29781 N3        -415.5394  -104.4360   262.1182 N3            1 RES     
   29782 S2        -415.2196  -105.1991   263.5534 S2            1 RES     
   29783 N3        -413.6362  -104.8341   263.8489 N3            1 RES     
   29784 S2        -417.7495  -105.9121   257.9099 S2            1 RES     
   29785 C1        -417.2306  -106.6534   256.4787 C1            1 RES     
   29786 C1        -416.4895  -105.7480   255.7095 C1            1 RES     
   29787 C0        -416.4976  -102.7144   254.6666 C0            1 RES     
   29788 C0        -417.7587  -102.8992   253.6817 C0            1 RES     
   29789 C0        -418.0053  -104.3413   253.1366 C0            1 RES     
   29790 C0        -419.4128  -104.8449   253.5084 C0            1 RES     
   29791 C0        -419.6633  -106.3254   253.1696 C0            1 RES     
   29792 C0        -421.1299  -106.6808   253.4798 C0            1 RES     
   29793 C0        -421.4205  -108.1823   253.3629 C0            1 RES     
   29794 C0        -422.8971  -108.4677   253.6465 C0            1 RES     
   29795 C0        -417.4773  -101.8967   252.4756 C0            1 RES     
   29796 C0        -418.3682  -101.6654   251.2148 C0            1 RES     
   29797 C0        -418.2071  -102.6605   250.0249 C0            1 RES     
   29798 C0        -418.5272  -101.9770   248.6599 C0            1 RES     
   29799 C0        -418.2824  -102.8872   247.4385 C0            1 RES     
   29800 C0        -418.0987  -102.1210   246.1026 C0            1 RES     
   29801 C0        -419.2733  -101.2250   245.6836 C0            1 RES     
   29802 C0        -418.9899  -100.5593   244.3301 C0            1 RES     
   29803 C0        -414.2882  -103.5096   255.4926 C0            1 RES     
   29804 C0        -413.2887  -102.3878   254.8376 C0            1 RES     
   29805 C0        -413.8426  -101.7720   253.4904 C0            1 RES     
   29806 C0        -412.9040  -100.9664   252.5979 C0            1 RES     
   29807 C0        -413.4835  -100.5480   251.2346 C0            1 RES     
   29808 C0        -414.5385   -99.4275   251.3431 C0            1 RES     
   29809 C0        -414.7212   -98.6699   250.0155 C0            1 RES     
   29810 C0        -415.3286   -99.5110   248.9061 C0            1 RES     
   29811 C0        -412.5746  -101.3107   255.7749 C0            1 RES     
   29812 C0        -411.1350  -100.9444   255.2484 C0            1 RES     
   29813 C0        -410.1243  -100.0558   256.0247 C0            1 RES     
   29814 C0        -410.1754   -98.5039   255.8379 C0            1 RES     
   29815 C0        -408.7221   -97.9444   255.9393 C0            1 RES     
   29816 C0        -408.5299   -96.4232   255.7577 C0            1 RES     
   29817 C0        -407.0170   -96.1131   255.6327 C0            1 RES     
   29818 C0        -406.7056   -94.6224   255.5079 C0            1 RES     
   29819 H4        -413.8702  -102.2182   258.0249 H4            1 RES     
   29820 H5        -412.5024  -101.9689   259.6690 H5            1 RES     
   29821 H4        -415.9990  -106.0395   254.7944 H4            1 RES     
   29822 H6        -416.5049  -101.6230   254.8742 H6            1 RES     
   29823 H6        -415.8281  -103.0063   253.8828 H6            1 RES     
   29824 H6        -418.6737  -102.5468   254.2067 H6            1 RES     
   29825 H6        -417.8930  -104.3950   252.0389 H6            1 RES     
   29826 H6        -417.2322  -105.0191   253.4795 H6            1 RES     
   29827 H6        -419.5609  -104.7292   254.6047 H6            1 RES     
   29828 H6        -420.1536  -104.2079   252.9765 H6            1 RES     
   29829 H6        -419.4572  -106.5316   252.0961 H6            1 RES     
   29830 H6        -418.9814  -106.9480   253.7901 H6            1 RES     
   29831 H6        -421.7859  -106.1183   252.7781 H6            1 RES     
   29832 H6        -421.3728  -106.3694   254.5192 H6            1 RES     
   29833 H6        -421.1714  -108.5505   252.3447 H6            1 RES     
   29834 H6        -420.8015  -108.7325   254.1052 H6            1 RES     
   29835 H6        -423.1787  -108.1018   254.6577 H6            1 RES     
   29836 H6        -423.5383  -107.9647   252.8910 H6            1 RES     
   29837 H6        -423.0890  -109.5604   253.6019 H6            1 RES     
   29838 H6        -417.4216  -100.8976   252.9609 H6            1 RES     
   29839 H6        -416.4671  -102.1027   252.0567 H6            1 RES     
   29840 H6        -419.4306  -101.4662   251.4611 H6            1 RES     
   29841 H6        -417.9548  -100.7100   250.8205 H6            1 RES     
   29842 H6        -417.1381  -102.9656   249.9613 H6            1 RES     
   29843 H6        -418.8276  -103.5669   250.1767 H6            1 RES     
   29844 H6        -419.5638  -101.5797   248.6341 H6            1 RES     
   29845 H6        -417.8390  -101.1250   248.5531 H6            1 RES     
   29846 H6        -417.3278  -103.4385   247.5851 H6            1 RES     
   29847 H6        -419.1011  -103.6339   247.3623 H6            1 RES     
   29848 H6        -417.9200  -102.8720   245.3014 H6            1 RES     
   29849 H6        -417.1868  -101.4870   246.1780 H6            1 RES     
   29850 H6        -419.4242  -100.4269   246.4409 H6            1 RES     
   29851 H6        -420.2008  -101.8284   245.5987 H6            1 RES     
   29852 H6        -418.8630  -101.3273   243.5365 H6            1 RES     
   29853 H6        -418.0668   -99.9416   244.3788 H6            1 RES     
   29854 H6        -419.8366   -99.8993   244.0450 H6            1 RES     
   29855 H6        -413.7339  -103.9812   256.3335 H6            1 RES     
   29856 H6        -414.3250  -104.3032   254.7116 H6            1 RES     
   29857 H6        -412.4491  -103.0506   254.5353 H6            1 RES     
   29858 H6        -414.7009  -101.1080   253.7065 H6            1 RES     
   29859 H6        -414.1261  -102.6286   252.8420 H6            1 RES     
   29860 H6        -412.6404  -100.0157   253.0939 H6            1 RES     
   29861 H6        -412.0113  -101.5989   252.4017 H6            1 RES     
   29862 H6        -412.6195  -100.1297   250.6761 H6            1 RES     
   29863 H6        -413.8676  -101.4223   250.6632 H6            1 RES     
   29864 H6        -414.1690   -98.6650   252.0610 H6            1 RES     
   29865 H6        -415.5033   -99.8184   251.7293 H6            1 RES     
   29866 H6        -413.7355   -98.2806   249.6796 H6            1 RES     
   29867 H6        -415.3901   -97.7994   250.1898 H6            1 RES     
   29868 H6        -415.4146   -98.9005   247.9816 H6            1 RES     
   29869 H6        -416.3366   -99.8116   249.2257 H6            1 RES     
   29870 H6        -414.7126  -100.4057   248.6817 H6            1 RES     
   29871 H6        -413.2293  -100.4309   255.9593 H6            1 RES     
   29872 H6        -412.3352  -101.7914   256.7373 H6            1 RES     
   29873 H6        -410.6302  -101.9320   255.1793 H6            1 RES     
   29874 H6        -411.0974  -100.5402   254.2424 H6            1 RES     
   29875 H6        -409.1747  -100.3549   255.5265 H6            1 RES     
   29876 H6        -410.0064  -100.3463   257.0891 H6            1 RES     
   29877 H6        -410.8671   -98.0409   256.5748 H6            1 RES     
   29878 H6        -410.5306   -98.2518   254.8149 H6            1 RES     
   29879 H6        -408.1430   -98.4302   255.1215 H6            1 RES     
   29880 H6        -408.2694   -98.2403   256.9101 H6            1 RES     
   29881 H6        -408.9652   -95.8862   256.6280 H6            1 RES     
   29882 H6        -409.0340   -96.0761   254.8296 H6            1 RES     
   29883 H6        -406.6177   -96.6215   254.7260 H6            1 RES     
   29884 H6        -406.4728   -96.5052   256.5189 H6            1 RES     
   29885 H6        -407.0240   -94.0818   256.4232 H6            1 RES     
   29886 H6        -407.2078   -94.1843   254.6205 H6            1 RES     
   29887 H6        -405.6069   -94.4869   255.3884 H6            1 RES     
   29888 C0        -416.1628  -115.5404   254.3176 C0            1 RES     
   29889 C1        -416.3628  -115.9168   255.6165 C1            1 RES     
   29890 C1        -417.5418  -115.5003   256.1197 C1            1 RES     
   29891 C1        -418.1964  -114.7774   255.2657 C1            1 RES     
   29892 C1        -417.4250  -114.6342   254.0185 C1            1 RES     
   29893 C1        -417.2544  -113.1280   254.1474 C1            1 RES     
   29894 C1        -418.0912  -112.4780   255.0077 C1            1 RES     
   29895 S2        -419.3849  -113.5586   255.7072 S2            1 RES     
   29896 C1        -417.9267  -111.0144   255.3960 C1            1 RES     
   29897 C1        -417.1014  -110.1348   254.6352 C1            1 RES     
   29898 N3        -416.9288  -108.8283   254.9897 N3            1 RES     
   29899 C1        -417.5033  -108.2848   256.0860 C1            1 RES     
   29900 C1        -418.3046  -109.0860   256.8898 C1            1 RES     
   29901 C1        -418.5263  -110.4537   256.5436 C1            1 RES     
   29902 N3        -419.3194  -111.1381   257.4155 N3            1 RES     
   29903 S2        -419.6943  -109.9907   258.5502 S2            1 RES     
   29904 N3        -418.9035  -108.6407   258.0211 N3            1 RES     
   29905 S2        -417.7400  -115.8465   257.7452 S2            1 RES     
   29906 C1        -416.2267  -116.6002   257.8417 C1            1 RES     
   29907 C1        -415.5713  -116.5225   256.6068 C1            1 RES     
   29908 C0        -416.0562  -116.8905   253.4573 C0            1 RES     
   29909 C0        -416.2656  -118.4862   253.5246 C0            1 RES     
   29910 C0        -415.5721  -119.2255   254.7121 C0            1 RES     
   29911 C0        -416.5978  -119.9961   255.5646 C0            1 RES     
   29912 C0        -416.0192  -120.5959   256.8588 C0            1 RES     
   29913 C0        -417.1032  -121.4327   257.5648 C0            1 RES     
   29914 C0        -416.6809  -121.9049   258.9617 C0            1 RES     
   29915 C0        -417.7814  -122.7587   259.5959 C0            1 RES     
   29916 C0        -415.6994  -119.0251   252.1362 C0            1 RES     
   29917 C0        -415.6344  -120.5093   251.6570 C0            1 RES     
   29918 C0        -414.4255  -121.3702   252.1363 C0            1 RES     
   29919 C0        -414.0645  -122.4776   251.0990 C0            1 RES     
   29920 C0        -412.8092  -123.2924   251.4738 C0            1 RES     
   29921 C0        -412.1444  -124.0207   250.2767 C0            1 RES     
   29922 C0        -413.0388  -125.0183   249.5263 C0            1 RES     
   29923 C0        -412.2565  -125.7029   248.3971 C0            1 RES     
   29924 C0        -414.7254  -114.8757   254.0619 C0            1 RES     
   29925 C0        -414.0392  -114.5112   252.6188 C0            1 RES     
   29926 C0        -413.8275  -115.7760   251.6934 C0            1 RES     
   29927 C0        -412.9216  -115.6623   250.4716 C0            1 RES     
   29928 C0        -412.6452  -116.9810   249.7272 C0            1 RES     
   29929 C0        -413.8621  -117.4920   248.9283 C0            1 RES     
   29930 C0        -413.4553  -118.4687   247.8100 C0            1 RES     
   29931 C0        -412.8896  -119.7837   248.3178 C0            1 RES     
   29932 C0        -414.5119  -113.2155   251.8150 C0            1 RES     
   29933 C0        -413.3183  -112.5500   251.0299 C0            1 RES     
   29934 C0        -413.4155  -111.1877   250.2894 C0            1 RES     
   29935 C0        -413.9089  -111.1615   248.8056 C0            1 RES     
   29936 C0        -413.1619  -110.0153   248.0551 C0            1 RES     
   29937 C0        -413.4772  -109.8212   246.5560 C0            1 RES     
   29938 C0        -412.4577  -108.8262   245.9466 C0            1 RES     
   29939 C0        -412.7133  -108.5131   244.4731 C0            1 RES     
   29940 H4        -416.4618  -112.6219   253.6616 H4            1 RES     
   29941 H5        -416.6057  -110.4750   253.7407 H5            1 RES     
   29942 H4        -414.5601  -116.8718   256.4709 H4            1 RES     
   29943 H6        -416.5910  -116.6110   252.5244 H6            1 RES     
   29944 H6        -415.0003  -117.0229   253.3334 H6            1 RES     
   29945 H6        -417.3567  -118.7003   253.5496 H6            1 RES     
   29946 H6        -414.8010  -119.9363   254.3649 H6            1 RES     
   29947 H6        -414.9921  -118.5322   255.3101 H6            1 RES     
   29948 H6        -417.4160  -119.3032   255.8609 H6            1 RES     
   29949 H6        -417.0243  -120.8068   254.9334 H6            1 RES     
   29950 H6        -415.1412  -121.2439   256.6430 H6            1 RES     
   29951 H6        -415.6935  -119.7611   257.5179 H6            1 RES     
   29952 H6        -417.3389  -122.3150   256.9284 H6            1 RES     
   29953 H6        -418.0249  -120.8213   257.6788 H6            1 RES     
   29954 H6        -415.7469  -122.5040   258.9060 H6            1 RES     
   29955 H6        -416.5005  -121.0176   259.6075 H6            1 RES     
   29956 H6        -418.7328  -122.1873   259.6573 H6            1 RES     
   29957 H6        -417.9518  -123.6767   258.9931 H6            1 RES     
   29958 H6        -417.4852  -123.0600   260.6227 H6            1 RES     
   29959 H6        -416.3263  -118.5158   251.3717 H6            1 RES     
   29960 H6        -414.6607  -118.6514   251.9948 H6            1 RES     
   29961 H6        -416.6011  -121.0429   251.7551 H6            1 RES     
   29962 H6        -415.4561  -120.3848   250.5653 H6            1 RES     
   29963 H6        -413.5270  -120.7152   252.1969 H6            1 RES     
   29964 H6        -414.6179  -121.8043   253.1384 H6            1 RES     
   29965 H6        -414.9196  -123.1623   250.9168 H6            1 RES     
   29966 H6        -413.8323  -121.9715   250.1499 H6            1 RES     
   29967 H6        -412.0287  -122.5977   251.8545 H6            1 RES     
   29968 H6        -413.0592  -124.0058   252.2875 H6            1 RES     
   29969 H6        -411.2516  -124.5620   250.6609 H6            1 RES     
   29970 H6        -411.7872  -123.2577   249.5492 H6            1 RES     
   29971 H6        -413.9027  -124.4832   249.0784 H6            1 RES     
   29972 H6        -413.4123  -125.7951   250.2252 H6            1 RES     
   29973 H6        -411.3982  -126.2766   248.8093 H6            1 RES     
   29974 H6        -411.8691  -124.9531   247.6734 H6            1 RES     
   29975 H6        -412.9169  -126.4081   247.8489 H6            1 RES     
   29976 H6        -414.6797  -113.9531   254.6812 H6            1 RES     
   29977 H6        -413.9798  -115.5568   254.5324 H6            1 RES     
   29978 H6        -413.0228  -114.2295   252.9698 H6            1 RES     
   29979 H6        -414.8045  -116.1318   251.3152 H6            1 RES     
   29980 H6        -413.3123  -116.5409   252.3130 H6            1 RES     
   29981 H6        -413.3920  -115.0078   249.7168 H6            1 RES     
   29982 H6        -411.9443  -115.2646   250.8211 H6            1 RES     
   29983 H6        -411.8533  -116.7294   248.9903 H6            1 RES     
   29984 H6        -412.2410  -117.7628   250.4082 H6            1 RES     
   29985 H6        -414.3251  -116.6300   248.4031 H6            1 RES     
   29986 H6        -414.6289  -117.9325   249.5998 H6            1 RES     
   29987 H6        -412.7042  -117.9782   247.1534 H6            1 RES     
   29988 H6        -414.3506  -118.6976   247.1922 H6            1 RES     
   29989 H6        -412.6081  -120.4249   247.4550 H6            1 RES     
   29990 H6        -413.6791  -120.2901   248.8913 H6            1 RES     
   29991 H6        -411.9917  -119.6301   248.9506 H6            1 RES     
   29992 H6        -415.4068  -113.4261   251.1893 H6            1 RES     
   29993 H6        -414.7573  -112.4250   252.5427 H6            1 RES     
   29994 H6        -412.5590  -112.3742   251.8221 H6            1 RES     
   29995 H6        -412.8243  -113.1897   250.3063 H6            1 RES     
   29996 H6        -412.3362  -110.9239   250.2180 H6            1 RES     
   29997 H6        -413.8785  -110.3847   250.8994 H6            1 RES     
   29998 H6        -415.0147  -111.0566   248.7599 H6            1 RES     
   29999 H6        -413.6230  -112.1038   248.2893 H6            1 RES     
   30000 H6        -412.0767  -110.2585   248.1149 H6            1 RES     
   30001 H6        -413.3315  -109.0483   248.5757 H6            1 RES     
   30002 H6        -414.5128  -109.4348   246.4403 H6            1 RES     
   30003 H6        -413.3885  -110.7868   246.0123 H6            1 RES     
   30004 H6        -411.4355  -109.2598   246.0303 H6            1 RES     
   30005 H6        -412.4761  -107.8683   246.5100 H6            1 RES     
   30006 H6        -413.6962  -108.0135   244.3476 H6            1 RES     
   30007 H6        -412.6818  -109.4372   243.8591 H6            1 RES     
   30008 H6        -411.9223  -107.8223   244.1032 H6            1 RES     
   30009 C0        -410.8789  -118.5151   265.0888 C0            1 RES     
   30010 C1        -411.6760  -117.7755   265.9173 C1            1 RES     
   30011 C1        -412.9619  -118.1794   265.9250 C1            1 RES     
   30012 C1        -413.1624  -119.1492   265.0884 C1            1 RES     
   30013 C1        -411.9118  -119.4865   264.3864 C1            1 RES     
   30014 C1        -412.4269  -119.0881   263.0115 C1            1 RES     
   30015 C1        -413.7787  -118.9721   262.8627 C1            1 RES     
   30016 S2        -414.7130  -119.5030   264.3377 S2            1 RES     
   30017 C1        -414.4414  -118.3985   261.6171 C1            1 RES     
   30018 C1        -413.7227  -118.2599   260.3931 C1            1 RES     
   30019 N3        -414.3011  -117.7246   259.2791 N3            1 RES     
   30020 C1        -415.5750  -117.2726   259.2605 C1            1 RES     
   30021 C1        -416.3322  -117.3541   260.4225 C1            1 RES     
   30022 C1        -415.7706  -117.9252   261.6048 C1            1 RES     
   30023 N3        -416.6069  -117.9380   262.6809 N3            1 RES     
   30024 S2        -417.9875  -117.2451   262.0822 S2            1 RES     
   30025 N3        -417.6084  -116.9065   260.5108 N3            1 RES     
   30026 S2        -413.9691  -117.2022   266.8370 S2            1 RES     
   30027 C1        -412.6929  -116.1826   267.2831 C1            1 RES     
   30028 C1        -411.5066  -116.5995   266.6671 C1            1 RES     
   30029 C0        -409.7792  -119.2234   266.0181 C0            1 RES     
   30030 C0        -409.3784  -119.5200   267.5498 C0            1 RES     
   30031 C0        -409.3491  -118.2880   268.5083 C0            1 RES     
   30032 C0        -410.3043  -118.4860   269.7005 C0            1 RES     
   30033 C0        -410.4721  -117.2399   270.5884 C0            1 RES     
   30034 C0        -411.3537  -117.5908   271.8022 C0            1 RES     
   30035 C0        -411.7408  -116.3636   272.6368 C0            1 RES     
   30036 C0        -412.5837  -116.7791   273.8447 C0            1 RES     
   30037 C0        -407.9330  -120.1852   267.4657 C0            1 RES     
   30038 C0        -407.0466  -120.6675   268.6566 C0            1 RES     
   30039 C0        -406.1782  -119.5989   269.3890 C0            1 RES     
   30040 C0        -404.8817  -120.2271   269.9869 C0            1 RES     
   30041 C0        -403.9338  -119.1951   270.6324 C0            1 RES     
   30042 C0        -402.4669  -119.6797   270.7700 C0            1 RES     
   30043 C0        -402.2641  -120.9569   271.5981 C0            1 RES     
   30044 C0        -400.7728  -121.3064   271.6968 C0            1 RES     
   30045 C0        -409.9629  -117.6210   264.1222 C0            1 RES     
   30046 C0        -408.7332  -118.1289   263.1649 C0            1 RES     
   30047 C0        -407.5516  -118.8002   263.9738 C0            1 RES     
   30048 C0        -406.2116  -119.0302   263.2825 C0            1 RES     
   30049 C0        -405.0759  -119.5347   264.1910 C0            1 RES     
   30050 C0        -405.2480  -121.0082   264.6143 C0            1 RES     
   30051 C0        -403.9182  -121.6460   265.0555 C0            1 RES     
   30052 C0        -403.3493  -121.0584   266.3354 C0            1 RES     
   30053 C0        -409.0486  -118.8655   261.7842 C0            1 RES     
   30054 C0        -407.9786  -118.5167   260.6808 C0            1 RES     
   30055 C0        -408.0950  -118.9404   259.1907 C0            1 RES     
   30056 C0        -407.5399  -120.3346   258.7503 C0            1 RES     
   30057 C0        -406.9805  -120.2094   257.2989 C0            1 RES     
   30058 C0        -406.3536  -121.4704   256.6656 C0            1 RES     
   30059 C0        -405.6345  -121.0754   255.3512 C0            1 RES     
   30060 C0        -405.0253  -122.2620   254.6059 C0            1 RES     
   30061 H4        -411.7619  -118.8231   262.2318 H4            1 RES     
   30062 H5        -412.7026  -118.5972   260.3082 H5            1 RES     
   30063 H4        -410.5879  -116.0415   266.7545 H4            1 RES     
   30064 H6        -409.6842  -120.2221   265.5407 H6            1 RES     
   30065 H6        -408.9167  -118.5988   265.9015 H6            1 RES     
   30066 H6        -410.0773  -120.2828   267.9582 H6            1 RES     
   30067 H6        -408.3353  -118.0916   268.9009 H6            1 RES     
   30068 H6        -409.5660  -117.3746   267.9667 H6            1 RES     
   30069 H6        -411.3131  -118.7534   269.3156 H6            1 RES     
   30070 H6        -409.9165  -119.3317   270.3103 H6            1 RES     
   30071 H6        -409.4873  -116.8682   270.9482 H6            1 RES     
   30072 H6        -410.9563  -116.4409   269.9846 H6            1 RES     
   30073 H6        -410.8030  -118.3174   272.4408 H6            1 RES     
   30074 H6        -412.2931  -118.0697   271.4492 H6            1 RES     
   30075 H6        -410.8330  -115.8331   272.9960 H6            1 RES     
   30076 H6        -412.3378  -115.6678   272.0071 H6            1 RES     
   30077 H6        -413.4969  -117.3210   273.5161 H6            1 RES     
   30078 H6        -411.9948  -117.4411   274.5155 H6            1 RES     
   30079 H6        -412.8950  -115.8810   274.4186 H6            1 RES     
   30080 H6        -408.0903  -121.0988   266.8514 H6            1 RES     
   30081 H6        -407.2583  -119.5215   266.8802 H6            1 RES     
   30082 H6        -407.5855  -121.3323   269.3613 H6            1 RES     
   30083 H6        -406.2987  -121.3062   268.1351 H6            1 RES     
   30084 H6        -405.8290  -118.8530   268.6396 H6            1 RES     
   30085 H6        -406.7668  -119.0727   270.1676 H6            1 RES     
   30086 H6        -405.1151  -121.0333   270.7140 H6            1 RES     
   30087 H6        -404.3243  -120.6790   269.1527 H6            1 RES     
   30088 H6        -403.8779  -118.2978   269.9778 H6            1 RES     
   30089 H6        -404.3442  -118.8777   271.6145 H6            1 RES     
   30090 H6        -401.8790  -118.8570   271.2341 H6            1 RES     
   30091 H6        -402.0527  -119.8554   269.7518 H6            1 RES     
   30092 H6        -402.7905  -121.8055   271.1124 H6            1 RES     
   30093 H6        -402.6671  -120.8145   272.6222 H6            1 RES     
   30094 H6        -400.2142  -120.4919   272.2068 H6            1 RES     
   30095 H6        -400.3350  -121.4602   270.6865 H6            1 RES     
   30096 H6        -400.6382  -122.2413   272.2813 H6            1 RES     
   30097 H6        -410.6507  -117.0328   263.4758 H6            1 RES     
   30098 H6        -409.4791  -116.8563   264.7720 H6            1 RES     
   30099 H6        -408.3419  -117.1416   262.8368 H6            1 RES     
   30100 H6        -407.8713  -119.7890   264.3536 H6            1 RES     
   30101 H6        -407.2894  -118.0989   264.7947 H6            1 RES     
   30102 H6        -406.3190  -119.8107   262.5088 H6            1 RES     
   30103 H6        -405.8895  -118.0564   262.8543 H6            1 RES     
   30104 H6        -404.1636  -119.4809   263.5599 H6            1 RES     
   30105 H6        -404.9226  -118.8684   265.0691 H6            1 RES     
   30106 H6        -405.5676  -121.5940   263.7265 H6            1 RES     
   30107 H6        -406.0331  -121.1150   265.3923 H6            1 RES     
   30108 H6        -403.1717  -121.5332   264.2394 H6            1 RES     
   30109 H6        -404.0807  -122.7330   265.2211 H6            1 RES     
   30110 H6        -402.3873  -121.5587   266.5784 H6            1 RES     
   30111 H6        -404.0657  -121.2588   267.1448 H6            1 RES     
   30112 H6        -403.1663  -119.9682   266.2437 H6            1 RES     
   30113 H6        -409.2127  -119.9557   261.9303 H6            1 RES     
   30114 H6        -409.9575  -118.4178   261.3508 H6            1 RES     
   30115 H6        -407.9984  -117.4060   260.6490 H6            1 RES     
   30116 H6        -406.9540  -118.7709   260.9306 H6            1 RES     
   30117 H6        -407.3943  -118.2126   258.7228 H6            1 RES     
   30118 H6        -409.0885  -118.7252   258.7458 H6            1 RES     
   30119 H6        -408.3233  -121.1179   258.8434 H6            1 RES     
   30120 H6        -406.6762  -120.6229   259.3883 H6            1 RES     
   30121 H6        -406.1693  -119.4476   257.3418 H6            1 RES     
   30122 H6        -407.7747  -119.8346   256.6180 H6            1 RES     
   30123 H6        -407.1488  -122.2198   256.4625 H6            1 RES     
   30124 H6        -405.6023  -121.9173   257.3524 H6            1 RES     
   30125 H6        -404.8116  -120.3640   255.5893 H6            1 RES     
   30126 H6        -406.3459  -120.5668   254.6652 H6            1 RES     
   30127 H6        -405.8194  -122.9678   254.2854 H6            1 RES     
   30128 H6        -404.2862  -122.7933   255.2410 H6            1 RES     
   30129 H6        -404.5005  -121.8924   253.6961 H6            1 RES     
   30130 C0        -412.6921  -107.5676   270.5341 C0            1 RES     
   30131 C1        -414.0297  -107.4355   270.2845 C1            1 RES     
   30132 C1        -414.7840  -108.3690   270.8980 C1            1 RES     
   30133 C1        -414.0538  -109.2247   271.5421 C1            1 RES     
   30134 C1        -412.6251  -108.9030   271.3802 C1            1 RES     
   30135 C1        -412.2892  -110.1880   270.6383 C1            1 RES     
   30136 C1        -413.1854  -111.2132   270.7317 C1            1 RES     
   30137 S2        -414.5467  -110.8748   271.8991 S2            1 RES     
   30138 C1        -413.0964  -112.4862   269.9001 C1            1 RES     
   30139 C1        -411.8952  -112.8439   269.2200 C1            1 RES     
   30140 N3        -411.8138  -113.9697   268.4530 N3            1 RES     
   30141 C1        -412.8593  -114.8063   268.2670 C1            1 RES     
   30142 C1        -414.0706  -114.5121   268.8805 C1            1 RES     
   30143 C1        -414.1923  -113.3537   269.7070 C1            1 RES     
   30144 N3        -415.4316  -113.1668   270.2424 N3            1 RES     
   30145 S2        -416.2848  -114.4600   269.6557 S2            1 RES     
   30146 N3        -415.1816  -115.2747   268.7355 N3            1 RES     
   30147 S2        -416.4072  -108.2928   270.4972 S2            1 RES     
   30148 C1        -416.1648  -106.9658   269.4738 C1            1 RES     
   30149 C1        -414.8046  -106.6372   269.4265 C1            1 RES     
   30150 C0        -412.2321  -106.2349   271.3002 C0            1 RES     
   30151 C0        -412.7815  -104.9045   272.0233 C0            1 RES     
   30152 C0        -413.8028  -104.0472   271.2111 C0            1 RES     
   30153 C0        -415.1281  -103.8830   271.9791 C0            1 RES     
   30154 C0        -416.2491  -103.2104   271.1664 C0            1 RES     
   30155 C0        -417.4798  -102.9991   272.0689 C0            1 RES     
   30156 C0        -418.7144  -102.5183   271.2961 C0            1 RES     
   30157 C0        -419.8906  -102.2924   272.2489 C0            1 RES     
   30158 C0        -411.4746  -104.0492   272.3386 C0            1 RES     
   30159 C0        -411.4074  -102.6493   273.0258 C0            1 RES     
   30160 C0        -411.6435  -101.3939   272.1310 C0            1 RES     
   30161 C0        -410.8724  -100.1514   272.6733 C0            1 RES     
   30162 C0        -410.9863   -98.9075   271.7677 C0            1 RES     
   30163 C0        -409.8669   -97.8570   271.9886 C0            1 RES     
   30164 C0        -409.7618   -97.2872   273.4107 C0            1 RES     
   30165 C0        -408.6514   -96.2306   273.4894 C0            1 RES     
   30166 C0        -411.7891  -107.5111   269.2095 C0            1 RES     
   30167 C0        -410.1558  -107.4069   269.1212 C0            1 RES     
   30168 C0        -409.5785  -106.0989   269.7969 C0            1 RES     
   30169 C0        -408.1335  -105.6942   269.5232 C0            1 RES     
   30170 C0        -407.7107  -104.3260   270.0878 C0            1 RES     
   30171 C0        -407.5472  -104.3282   271.6219 C0            1 RES     
   30172 C0        -406.6532  -103.1752   272.1133 C0            1 RES     
   30173 C0        -407.2569  -101.7972   271.9045 C0            1 RES     
   30174 C0        -409.2583  -108.7004   269.3857 C0            1 RES     
   30175 C0        -407.9629  -108.7033   268.4879 C0            1 RES     
   30176 C0        -406.9746  -109.8979   268.3897 C0            1 RES     
   30177 C0        -405.8026  -110.0028   269.4200 C0            1 RES     
   30178 C0        -404.5682  -110.6342   268.7039 C0            1 RES     
   30179 C0        -403.2770  -110.8101   269.5321 C0            1 RES     
   30180 C0        -402.1144  -111.1999   268.5848 C0            1 RES     
   30181 C0        -400.7944  -111.4585   269.3095 C0            1 RES     
   30182 H4        -411.4443  -110.2506   270.0038 H4            1 RES     
   30183 H5        -411.0059  -112.2419   269.3120 H5            1 RES     
   30184 H4        -414.4219  -105.8704   268.7719 H4            1 RES     
   30185 H6        -411.5048  -106.6344   272.0390 H6            1 RES     
   30186 H6        -411.7882  -105.6439   270.5248 H6            1 RES     
   30187 H6        -413.2390  -105.1920   272.9954 H6            1 RES     
   30188 H6        -413.4075  -103.0428   270.9763 H6            1 RES     
   30189 H6        -413.9592  -104.4683   270.2248 H6            1 RES     
   30190 H6        -415.4985  -104.8873   272.2810 H6            1 RES     
   30191 H6        -414.9191  -103.2867   272.8947 H6            1 RES     
   30192 H6        -415.9186  -102.2273   270.7643 H6            1 RES     
   30193 H6        -416.5120  -103.8748   270.3138 H6            1 RES     
   30194 H6        -417.2185  -102.2549   272.8544 H6            1 RES     
   30195 H6        -417.7433  -103.9593   272.5636 H6            1 RES     
   30196 H6        -418.4959  -101.5690   270.7619 H6            1 RES     
   30197 H6        -419.0021  -103.2919   270.5507 H6            1 RES     
   30198 H6        -420.1275  -103.2252   272.8052 H6            1 RES     
   30199 H6        -419.6462  -101.4910   272.9788 H6            1 RES     
   30200 H6        -420.7911  -101.9863   271.6760 H6            1 RES     
   30201 H6        -410.8711  -104.7098   272.9991 H6            1 RES     
   30202 H6        -410.8890  -103.9170   271.4016 H6            1 RES     
   30203 H6        -411.9708  -102.6031   273.9794 H6            1 RES     
   30204 H6        -410.3296  -102.5840   273.2966 H6            1 RES     
   30205 H6        -411.2152  -101.5929   271.1226 H6            1 RES     
   30206 H6        -412.7262  -101.1802   272.0221 H6            1 RES     
   30207 H6        -411.1839   -99.8958   273.7081 H6            1 RES     
   30208 H6        -409.8049  -100.4169   272.7005 H6            1 RES     
   30209 H6        -410.8769   -99.2226   270.7068 H6            1 RES     
   30210 H6        -411.9921   -98.4519   271.8878 H6            1 RES     
   30211 H6        -410.0439   -97.0172   271.2806 H6            1 RES     
   30212 H6        -408.8886   -98.3179   271.7250 H6            1 RES     
   30213 H6        -409.5190   -98.1030   274.1240 H6            1 RES     
   30214 H6        -410.7237   -96.8185   273.7050 H6            1 RES     
   30215 H6        -408.8740   -95.3794   272.8100 H6            1 RES     
   30216 H6        -407.6695   -96.6668   273.2039 H6            1 RES     
   30217 H6        -408.5709   -95.8385   274.5256 H6            1 RES     
   30218 H6        -412.0905  -108.3727   268.5743 H6            1 RES     
   30219 H6        -412.1314  -106.6183   268.6377 H6            1 RES     
   30220 H6        -410.0454  -107.2466   268.0268 H6            1 RES     
   30221 H6        -409.6700  -106.1732   270.8970 H6            1 RES     
   30222 H6        -410.1570  -105.2452   269.3832 H6            1 RES     
   30223 H6        -407.4465  -106.4172   269.9971 H6            1 RES     
   30224 H6        -408.0051  -105.6547   268.4198 H6            1 RES     
   30225 H6        -406.7062  -104.1385   269.6527 H6            1 RES     
   30226 H6        -408.3875  -103.5113   269.7462 H6            1 RES     
   30227 H6        -407.0102  -105.2545   271.9169 H6            1 RES     
   30228 H6        -408.5333  -104.3299   272.1323 H6            1 RES     
   30229 H6        -405.6729  -103.2266   271.5914 H6            1 RES     
   30230 H6        -406.4674  -103.3058   273.2014 H6            1 RES     
   30231 H6        -406.5490  -101.0223   272.2697 H6            1 RES     
   30232 H6        -408.1797  -101.7409   272.4992 H6            1 RES     
   30233 H6        -407.4748  -101.5995   270.8350 H6            1 RES     
   30234 H6        -409.0605  -108.8463   270.4702 H6            1 RES     
   30235 H6        -409.7929  -109.5808   268.9937 H6            1 RES     
   30236 H6        -408.3668  -108.6004   267.4577 H6            1 RES     
   30237 H6        -407.3063  -107.8495   268.6172 H6            1 RES     
   30238 H6        -406.4665  -109.6559   267.4291 H6            1 RES     
   30239 H6        -407.4755  -110.8740   268.2238 H6            1 RES     
   30240 H6        -406.1183  -110.5758   270.3188 H6            1 RES     
   30241 H6        -405.4839  -108.9879   269.7435 H6            1 RES     
   30242 H6        -404.3086  -109.9478   267.8663 H6            1 RES     
   30243 H6        -404.8440  -111.6208   268.2732 H6            1 RES     
   30244 H6        -403.4318  -111.5980   270.3006 H6            1 RES     
   30245 H6        -403.0081  -109.8581   270.0393 H6            1 RES     
   30246 H6        -401.9477  -110.3728   267.8582 H6            1 RES     
   30247 H6        -402.3786  -112.1161   268.0138 H6            1 RES     
   30248 H6        -400.8926  -112.3238   269.9973 H6            1 RES     
   30249 H6        -400.4713  -110.5623   269.8789 H6            1 RES     
   30250 H6        -400.0063  -111.6976   268.5602 H6            1 RES     
   30251 H5           2.4874    -5.1792    -0.4566 H5            1 RES     
   30252 H5        -416.9544  -106.4778   268.8946 H5            1 RES     
@<TRIPOS>BOND
       1        1        2 1
       2        1       21 1
       3        1       37 1
       4        1        5 1
       5        2        3 1
       6        2       20 1
       7        3        4 1
       8        3       18 1
       9        4        5 1
      10        4        8 1
      11        5        6 1
      12        6        7 1
      13        6       53 1
      14        7        8 1
      15        7        9 1
      16        9       10 1
      17        9       14 1
      18       10       11 1
      19       10       54 1
      20       11       12 1
      21       12       13 1
      22       12    30251 1
      23       13       14 1
      24       13       17 1
      25       14       15 1
      26       15       16 1
      27       16       17 1
      28       18       19 1
      29       19       20 1
      30       19      133 1
      31       20       55 1
      32       21       22 1
      33       21       56 1
      34       21       57 1
      35       22       23 1
      36       22       29 1
      37       22       58 1
      38       23       24 1
      39       23       59 1
      40       23       60 1
      41       24       25 1
      42       24       61 1
      43       24       62 1
      44       25       26 1
      45       25       63 1
      46       25       64 1
      47       26       27 1
      48       26       65 1
      49       26       66 1
      50       27       28 1
      51       27       67 1
      52       27       68 1
      53       28       69 1
      54       28       70 1
      55       28       71 1
      56       29       30 1
      57       29       72 1
      58       29       73 1
      59       30       31 1
      60       30       74 1
      61       30       75 1
      62       31       32 1
      63       31       76 1
      64       31       77 1
      65       32       33 1
      66       32       78 1
      67       32       79 1
      68       33       34 1
      69       33       80 1
      70       33       81 1
      71       34       35 1
      72       34       82 1
      73       34       83 1
      74       35       36 1
      75       35       84 1
      76       35       85 1
      77       36       86 1
      78       36       87 1
      79       36       88 1
      80       37       38 1
      81       37       89 1
      82       37       90 1
      83       38       39 1
      84       38       45 1
      85       38       91 1
      86       39       40 1
      87       39       92 1
      88       39       93 1
      89       40       41 1
      90       40       94 1
      91       40       95 1
      92       41       42 1
      93       41       96 1
      94       41       97 1
      95       42       43 1
      96       42       98 1
      97       42       99 1
      98       43       44 1
      99       43      100 1
     100       43      101 1
     101       44      102 1
     102       44      103 1
     103       44      104 1
     104       45       46 1
     105       45      105 1
     106       45      106 1
     107       46       47 1
     108       46      107 1
     109       46      108 1
     110       47       48 1
     111       47      109 1
     112       47      110 1
     113       48       49 1
     114       48      111 1
     115       48      112 1
     116       49       50 1
     117       49      113 1
     118       49      114 1
     119       50       51 1
     120       50      115 1
     121       50      116 1
     122       51       52 1
     123       51      117 1
     124       51      118 1
     125       52      119 1
     126       52      120 1
     127       52      121 1
     128      122      123 1
     129      122      142 1
     130      122      158 1
     131      122      126 1
     132      123      124 1
     133      123      141 1
     134      124      125 1
     135      124      139 1
     136      125      126 1
     137      125      129 1
     138      126      127 1
     139      127      128 1
     140      127      174 1
     141      128      129 1
     142      128      130 1
     143      130      131 1
     144      130      135 1
     145      131      132 1
     146      131      175 1
     147      132      133 1
     148      133      134 1
     149      134      135 1
     150      134      138 1
     151      135      136 1
     152      136      137 1
     153      137      138 1
     154      139      140 1
     155      140      141 1
     156      140      254 1
     157      141      176 1
     158      142      143 1
     159      142      177 1
     160      142      178 1
     161      143      144 1
     162      143      150 1
     163      143      179 1
     164      144      145 1
     165      144      180 1
     166      144      181 1
     167      145      146 1
     168      145      182 1
     169      145      183 1
     170      146      147 1
     171      146      184 1
     172      146      185 1
     173      147      148 1
     174      147      186 1
     175      147      187 1
     176      148      149 1
     177      148      188 1
     178      148      189 1
     179      149      190 1
     180      149      191 1
     181      149      192 1
     182      150      151 1
     183      150      193 1
     184      150      194 1
     185      151      152 1
     186      151      195 1
     187      151      196 1
     188      152      153 1
     189      152      197 1
     190      152      198 1
     191      153      154 1
     192      153      199 1
     193      153      200 1
     194      154      155 1
     195      154      201 1
     196      154      202 1
     197      155      156 1
     198      155      203 1
     199      155      204 1
     200      156      157 1
     201      156      205 1
     202      156      206 1
     203      157      207 1
     204      157      208 1
     205      157      209 1
     206      158      159 1
     207      158      210 1
     208      158      211 1
     209      159      160 1
     210      159      166 1
     211      159      212 1
     212      160      161 1
     213      160      213 1
     214      160      214 1
     215      161      162 1
     216      161      215 1
     217      161      216 1
     218      162      163 1
     219      162      217 1
     220      162      218 1
     221      163      164 1
     222      163      219 1
     223      163      220 1
     224      164      165 1
     225      164      221 1
     226      164      222 1
     227      165      223 1
     228      165      224 1
     229      165      225 1
     230      166      167 1
     231      166      226 1
     232      166      227 1
     233      167      168 1
     234      167      228 1
     235      167      229 1
     236      168      169 1
     237      168      230 1
     238      168      231 1
     239      169      170 1
     240      169      232 1
     241      169      233 1
     242      170      171 1
     243      170      234 1
     244      170      235 1
     245      171      172 1
     246      171      236 1
     247      171      237 1
     248      172      173 1
     249      172      238 1
     250      172      239 1
     251      173      240 1
     252      173      241 1
     253      173      242 1
     254      243      244 1
     255      243      263 1
     256      243      279 1
     257      243      247 1
     258      244      245 1
     259      244      262 1
     260      245      246 1
     261      245      260 1
     262      246      247 1
     263      246      250 1
     264      247      248 1
     265      248      249 1
     266      248      295 1
     267      249      250 1
     268      249      251 1
     269      251      252 1
     270      251      256 1
     271      252      253 1
     272      252      296 1
     273      253      254 1
     274      254      255 1
     275      255      256 1
     276      255      259 1
     277      256      257 1
     278      257      258 1
     279      258      259 1
     280      260      261 1
     281      261      262 1
     282      261      375 1
     283      262      297 1
     284      263      264 1
     285      263      298 1
     286      263      299 1
     287      264      265 1
     288      264      271 1
     289      264      300 1
     290      265      266 1
     291      265      301 1
     292      265      302 1
     293      266      267 1
     294      266      303 1
     295      266      304 1
     296      267      268 1
     297      267      305 1
     298      267      306 1
     299      268      269 1
     300      268      307 1
     301      268      308 1
     302      269      270 1
     303      269      309 1
     304      269      310 1
     305      270      311 1
     306      270      312 1
     307      270      313 1
     308      271      272 1
     309      271      314 1
     310      271      315 1
     311      272      273 1
     312      272      316 1
     313      272      317 1
     314      273      274 1
     315      273      318 1
     316      273      319 1
     317      274      275 1
     318      274      320 1
     319      274      321 1
     320      275      276 1
     321      275      322 1
     322      275      323 1
     323      276      277 1
     324      276      324 1
     325      276      325 1
     326      277      278 1
     327      277      326 1
     328      277      327 1
     329      278      328 1
     330      278      329 1
     331      278      330 1
     332      279      280 1
     333      279      331 1
     334      279      332 1
     335      280      281 1
     336      280      287 1
     337      280      333 1
     338      281      282 1
     339      281      334 1
     340      281      335 1
     341      282      283 1
     342      282      336 1
     343      282      337 1
     344      283      284 1
     345      283      338 1
     346      283      339 1
     347      284      285 1
     348      284      340 1
     349      284      341 1
     350      285      286 1
     351      285      342 1
     352      285      343 1
     353      286      344 1
     354      286      345 1
     355      286      346 1
     356      287      288 1
     357      287      347 1
     358      287      348 1
     359      288      289 1
     360      288      349 1
     361      288      350 1
     362      289      290 1
     363      289      351 1
     364      289      352 1
     365      290      291 1
     366      290      353 1
     367      290      354 1
     368      291      292 1
     369      291      355 1
     370      291      356 1
     371      292      293 1
     372      292      357 1
     373      292      358 1
     374      293      294 1
     375      293      359 1
     376      293      360 1
     377      294      361 1
     378      294      362 1
     379      294      363 1
     380      364      365 1
     381      364      384 1
     382      364      400 1
     383      364      368 1
     384      365      366 1
     385      365      383 1
     386      366      367 1
     387      366      381 1
     388      367      368 1
     389      367      371 1
     390      368      369 1
     391      369      370 1
     392      369      416 1
     393      370      371 1
     394      370      372 1
     395      372      373 1
     396      372      377 1
     397      373      374 1
     398      373      417 1
     399      374      375 1
     400      375      376 1
     401      376      377 1
     402      376      380 1
     403      377      378 1
     404      378      379 1
     405      379      380 1
     406      381      382 1
     407      382      383 1
     408      382      496 1
     409      383      418 1
     410      384      385 1
     411      384      419 1
     412      384      420 1
     413      385      386 1
     414      385      392 1
     415      385      421 1
     416      386      387 1
     417      386      422 1
     418      386      423 1
     419      387      388 1
     420      387      424 1
     421      387      425 1
     422      388      389 1
     423      388      426 1
     424      388      427 1
     425      389      390 1
     426      389      428 1
     427      389      429 1
     428      390      391 1
     429      390      430 1
     430      390      431 1
     431      391      432 1
     432      391      433 1
     433      391      434 1
     434      392      393 1
     435      392      435 1
     436      392      436 1
     437      393      394 1
     438      393      437 1
     439      393      438 1
     440      394      395 1
     441      394      439 1
     442      394      440 1
     443      395      396 1
     444      395      441 1
     445      395      442 1
     446      396      397 1
     447      396      443 1
     448      396      444 1
     449      397      398 1
     450      397      445 1
     451      397      446 1
     452      398      399 1
     453      398      447 1
     454      398      448 1
     455      399      449 1
     456      399      450 1
     457      399      451 1
     458      400      401 1
     459      400      452 1
     460      400      453 1
     461      401      402 1
     462      401      408 1
     463      401      454 1
     464      402      403 1
     465      402      455 1
     466      402      456 1
     467      403      404 1
     468      403      457 1
     469      403      458 1
     470      404      405 1
     471      404      459 1
     472      404      460 1
     473      405      406 1
     474      405      461 1
     475      405      462 1
     476      406      407 1
     477      406      463 1
     478      406      464 1
     479      407      465 1
     480      407      466 1
     481      407      467 1
     482      408      409 1
     483      408      468 1
     484      408      469 1
     485      409      410 1
     486      409      470 1
     487      409      471 1
     488      410      411 1
     489      410      472 1
     490      410      473 1
     491      411      412 1
     492      411      474 1
     493      411      475 1
     494      412      413 1
     495      412      476 1
     496      412      477 1
     497      413      414 1
     498      413      478 1
     499      413      479 1
     500      414      415 1
     501      414      480 1
     502      414      481 1
     503      415      482 1
     504      415      483 1
     505      415      484 1
     506      485      486 1
     507      485      505 1
     508      485      521 1
     509      485      489 1
     510      486      487 1
     511      486      504 1
     512      487      488 1
     513      487      502 1
     514      488      489 1
     515      488      492 1
     516      489      490 1
     517      490      491 1
     518      490      537 1
     519      491      492 1
     520      491      493 1
     521      493      494 1
     522      493      498 1
     523      494      495 1
     524      494      538 1
     525      495      496 1
     526      496      497 1
     527      497      498 1
     528      497      501 1
     529      498      499 1
     530      499      500 1
     531      500      501 1
     532      502      503 1
     533      503      504 1
     534      503      617 1
     535      504      539 1
     536      505      506 1
     537      505      540 1
     538      505      541 1
     539      506      507 1
     540      506      513 1
     541      506      542 1
     542      507      508 1
     543      507      543 1
     544      507      544 1
     545      508      509 1
     546      508      545 1
     547      508      546 1
     548      509      510 1
     549      509      547 1
     550      509      548 1
     551      510      511 1
     552      510      549 1
     553      510      550 1
     554      511      512 1
     555      511      551 1
     556      511      552 1
     557      512      553 1
     558      512      554 1
     559      512      555 1
     560      513      514 1
     561      513      556 1
     562      513      557 1
     563      514      515 1
     564      514      558 1
     565      514      559 1
     566      515      516 1
     567      515      560 1
     568      515      561 1
     569      516      517 1
     570      516      562 1
     571      516      563 1
     572      517      518 1
     573      517      564 1
     574      517      565 1
     575      518      519 1
     576      518      566 1
     577      518      567 1
     578      519      520 1
     579      519      568 1
     580      519      569 1
     581      520      570 1
     582      520      571 1
     583      520      572 1
     584      521      522 1
     585      521      573 1
     586      521      574 1
     587      522      523 1
     588      522      529 1
     589      522      575 1
     590      523      524 1
     591      523      576 1
     592      523      577 1
     593      524      525 1
     594      524      578 1
     595      524      579 1
     596      525      526 1
     597      525      580 1
     598      525      581 1
     599      526      527 1
     600      526      582 1
     601      526      583 1
     602      527      528 1
     603      527      584 1
     604      527      585 1
     605      528      586 1
     606      528      587 1
     607      528      588 1
     608      529      530 1
     609      529      589 1
     610      529      590 1
     611      530      531 1
     612      530      591 1
     613      530      592 1
     614      531      532 1
     615      531      593 1
     616      531      594 1
     617      532      533 1
     618      532      595 1
     619      532      596 1
     620      533      534 1
     621      533      597 1
     622      533      598 1
     623      534      535 1
     624      534      599 1
     625      534      600 1
     626      535      536 1
     627      535      601 1
     628      535      602 1
     629      536      603 1
     630      536      604 1
     631      536      605 1
     632      606      607 1
     633      606      626 1
     634      606      642 1
     635      606      610 1
     636      607      608 1
     637      607      625 1
     638      608      609 1
     639      608      623 1
     640      609      610 1
     641      609      613 1
     642      610      611 1
     643      611      612 1
     644      611      658 1
     645      612      613 1
     646      612      614 1
     647      614      615 1
     648      614      619 1
     649      615      616 1
     650      615      659 1
     651      616      617 1
     652      617      618 1
     653      618      619 1
     654      618      622 1
     655      619      620 1
     656      620      621 1
     657      621      622 1
     658      623      624 1
     659      624      625 1
     660      624      738 1
     661      625      660 1
     662      626      627 1
     663      626      661 1
     664      626      662 1
     665      627      628 1
     666      627      634 1
     667      627      663 1
     668      628      629 1
     669      628      664 1
     670      628      665 1
     671      629      630 1
     672      629      666 1
     673      629      667 1
     674      630      631 1
     675      630      668 1
     676      630      669 1
     677      631      632 1
     678      631      670 1
     679      631      671 1
     680      632      633 1
     681      632      672 1
     682      632      673 1
     683      633      674 1
     684      633      675 1
     685      633      676 1
     686      634      635 1
     687      634      677 1
     688      634      678 1
     689      635      636 1
     690      635      679 1
     691      635      680 1
     692      636      637 1
     693      636      681 1
     694      636      682 1
     695      637      638 1
     696      637      683 1
     697      637      684 1
     698      638      639 1
     699      638      685 1
     700      638      686 1
     701      639      640 1
     702      639      687 1
     703      639      688 1
     704      640      641 1
     705      640      689 1
     706      640      690 1
     707      641      691 1
     708      641      692 1
     709      641      693 1
     710      642      643 1
     711      642      694 1
     712      642      695 1
     713      643      644 1
     714      643      650 1
     715      643      696 1
     716      644      645 1
     717      644      697 1
     718      644      698 1
     719      645      646 1
     720      645      699 1
     721      645      700 1
     722      646      647 1
     723      646      701 1
     724      646      702 1
     725      647      648 1
     726      647      703 1
     727      647      704 1
     728      648      649 1
     729      648      705 1
     730      648      706 1
     731      649      707 1
     732      649      708 1
     733      649      709 1
     734      650      651 1
     735      650      710 1
     736      650      711 1
     737      651      652 1
     738      651      712 1
     739      651      713 1
     740      652      653 1
     741      652      714 1
     742      652      715 1
     743      653      654 1
     744      653      716 1
     745      653      717 1
     746      654      655 1
     747      654      718 1
     748      654      719 1
     749      655      656 1
     750      655      720 1
     751      655      721 1
     752      656      657 1
     753      656      722 1
     754      656      723 1
     755      657      724 1
     756      657      725 1
     757      657      726 1
     758      727      728 1
     759      727      747 1
     760      727      763 1
     761      727      731 1
     762      728      729 1
     763      728      746 1
     764      729      730 1
     765      729      744 1
     766      730      731 1
     767      730      734 1
     768      731      732 1
     769      732      733 1
     770      732      779 1
     771      733      734 1
     772      733      735 1
     773      735      736 1
     774      735      740 1
     775      736      737 1
     776      736      780 1
     777      737      738 1
     778      738      739 1
     779      739      740 1
     780      739      743 1
     781      740      741 1
     782      741      742 1
     783      742      743 1
     784      744      745 1
     785      745      746 1
     786      745      859 1
     787      746      781 1
     788      747      748 1
     789      747      782 1
     790      747      783 1
     791      748      749 1
     792      748      755 1
     793      748      784 1
     794      749      750 1
     795      749      785 1
     796      749      786 1
     797      750      751 1
     798      750      787 1
     799      750      788 1
     800      751      752 1
     801      751      789 1
     802      751      790 1
     803      752      753 1
     804      752      791 1
     805      752      792 1
     806      753      754 1
     807      753      793 1
     808      753      794 1
     809      754      795 1
     810      754      796 1
     811      754      797 1
     812      755      756 1
     813      755      798 1
     814      755      799 1
     815      756      757 1
     816      756      800 1
     817      756      801 1
     818      757      758 1
     819      757      802 1
     820      757      803 1
     821      758      759 1
     822      758      804 1
     823      758      805 1
     824      759      760 1
     825      759      806 1
     826      759      807 1
     827      760      761 1
     828      760      808 1
     829      760      809 1
     830      761      762 1
     831      761      810 1
     832      761      811 1
     833      762      812 1
     834      762      813 1
     835      762      814 1
     836      763      764 1
     837      763      815 1
     838      763      816 1
     839      764      765 1
     840      764      771 1
     841      764      817 1
     842      765      766 1
     843      765      818 1
     844      765      819 1
     845      766      767 1
     846      766      820 1
     847      766      821 1
     848      767      768 1
     849      767      822 1
     850      767      823 1
     851      768      769 1
     852      768      824 1
     853      768      825 1
     854      769      770 1
     855      769      826 1
     856      769      827 1
     857      770      828 1
     858      770      829 1
     859      770      830 1
     860      771      772 1
     861      771      831 1
     862      771      832 1
     863      772      773 1
     864      772      833 1
     865      772      834 1
     866      773      774 1
     867      773      835 1
     868      773      836 1
     869      774      775 1
     870      774      837 1
     871      774      838 1
     872      775      776 1
     873      775      839 1
     874      775      840 1
     875      776      777 1
     876      776      841 1
     877      776      842 1
     878      777      778 1
     879      777      843 1
     880      777      844 1
     881      778      845 1
     882      778      846 1
     883      778      847 1
     884      848      849 1
     885      848      868 1
     886      848      884 1
     887      848      852 1
     888      849      850 1
     889      849      867 1
     890      850      851 1
     891      850      865 1
     892      851      852 1
     893      851      855 1
     894      852      853 1
     895      853      854 1
     896      853      900 1
     897      854      855 1
     898      854      856 1
     899      856      857 1
     900      856      861 1
     901      857      858 1
     902      857      901 1
     903      858      859 1
     904      859      860 1
     905      860      861 1
     906      860      864 1
     907      861      862 1
     908      862      863 1
     909      863      864 1
     910      865      866 1
     911      866      867 1
     912      866      980 1
     913      867      902 1
     914      868      869 1
     915      868      903 1
     916      868      904 1
     917      869      870 1
     918      869      876 1
     919      869      905 1
     920      870      871 1
     921      870      906 1
     922      870      907 1
     923      871      872 1
     924      871      908 1
     925      871      909 1
     926      872      873 1
     927      872      910 1
     928      872      911 1
     929      873      874 1
     930      873      912 1
     931      873      913 1
     932      874      875 1
     933      874      914 1
     934      874      915 1
     935      875      916 1
     936      875      917 1
     937      875      918 1
     938      876      877 1
     939      876      919 1
     940      876      920 1
     941      877      878 1
     942      877      921 1
     943      877      922 1
     944      878      879 1
     945      878      923 1
     946      878      924 1
     947      879      880 1
     948      879      925 1
     949      879      926 1
     950      880      881 1
     951      880      927 1
     952      880      928 1
     953      881      882 1
     954      881      929 1
     955      881      930 1
     956      882      883 1
     957      882      931 1
     958      882      932 1
     959      883      933 1
     960      883      934 1
     961      883      935 1
     962      884      885 1
     963      884      936 1
     964      884      937 1
     965      885      886 1
     966      885      892 1
     967      885      938 1
     968      886      887 1
     969      886      939 1
     970      886      940 1
     971      887      888 1
     972      887      941 1
     973      887      942 1
     974      888      889 1
     975      888      943 1
     976      888      944 1
     977      889      890 1
     978      889      945 1
     979      889      946 1
     980      890      891 1
     981      890      947 1
     982      890      948 1
     983      891      949 1
     984      891      950 1
     985      891      951 1
     986      892      893 1
     987      892      952 1
     988      892      953 1
     989      893      894 1
     990      893      954 1
     991      893      955 1
     992      894      895 1
     993      894      956 1
     994      894      957 1
     995      895      896 1
     996      895      958 1
     997      895      959 1
     998      896      897 1
     999      896      960 1
    1000      896      961 1
    1001      897      898 1
    1002      897      962 1
    1003      897      963 1
    1004      898      899 1
    1005      898      964 1
    1006      898      965 1
    1007      899      966 1
    1008      899      967 1
    1009      899      968 1
    1010      969      970 1
    1011      969      989 1
    1012      969     1005 1
    1013      969      973 1
    1014      970      971 1
    1015      970      988 1
    1016      971      972 1
    1017      971      986 1
    1018      972      973 1
    1019      972      976 1
    1020      973      974 1
    1021      974      975 1
    1022      974     1021 1
    1023      975      976 1
    1024      975      977 1
    1025      977      978 1
    1026      977      982 1
    1027      978      979 1
    1028      978     1022 1
    1029      979      980 1
    1030      980      981 1
    1031      981      982 1
    1032      981      985 1
    1033      982      983 1
    1034      983      984 1
    1035      984      985 1
    1036      986      987 1
    1037      987      988 1
    1038      987     1101 1
    1039      988     1023 1
    1040      989      990 1
    1041      989     1024 1
    1042      989     1025 1
    1043      990      991 1
    1044      990      997 1
    1045      990     1026 1
    1046      991      992 1
    1047      991     1027 1
    1048      991     1028 1
    1049      992      993 1
    1050      992     1029 1
    1051      992     1030 1
    1052      993      994 1
    1053      993     1031 1
    1054      993     1032 1
    1055      994      995 1
    1056      994     1033 1
    1057      994     1034 1
    1058      995      996 1
    1059      995     1035 1
    1060      995     1036 1
    1061      996     1037 1
    1062      996     1038 1
    1063      996     1039 1
    1064      997      998 1
    1065      997     1040 1
    1066      997     1041 1
    1067      998      999 1
    1068      998     1042 1
    1069      998     1043 1
    1070      999     1000 1
    1071      999     1044 1
    1072      999     1045 1
    1073     1000     1001 1
    1074     1000     1046 1
    1075     1000     1047 1
    1076     1001     1002 1
    1077     1001     1048 1
    1078     1001     1049 1
    1079     1002     1003 1
    1080     1002     1050 1
    1081     1002     1051 1
    1082     1003     1004 1
    1083     1003     1052 1
    1084     1003     1053 1
    1085     1004     1054 1
    1086     1004     1055 1
    1087     1004     1056 1
    1088     1005     1006 1
    1089     1005     1057 1
    1090     1005     1058 1
    1091     1006     1007 1
    1092     1006     1013 1
    1093     1006     1059 1
    1094     1007     1008 1
    1095     1007     1060 1
    1096     1007     1061 1
    1097     1008     1009 1
    1098     1008     1062 1
    1099     1008     1063 1
    1100     1009     1010 1
    1101     1009     1064 1
    1102     1009     1065 1
    1103     1010     1011 1
    1104     1010     1066 1
    1105     1010     1067 1
    1106     1011     1012 1
    1107     1011     1068 1
    1108     1011     1069 1
    1109     1012     1070 1
    1110     1012     1071 1
    1111     1012     1072 1
    1112     1013     1014 1
    1113     1013     1073 1
    1114     1013     1074 1
    1115     1014     1015 1
    1116     1014     1075 1
    1117     1014     1076 1
    1118     1015     1016 1
    1119     1015     1077 1
    1120     1015     1078 1
    1121     1016     1017 1
    1122     1016     1079 1
    1123     1016     1080 1
    1124     1017     1018 1
    1125     1017     1081 1
    1126     1017     1082 1
    1127     1018     1019 1
    1128     1018     1083 1
    1129     1018     1084 1
    1130     1019     1020 1
    1131     1019     1085 1
    1132     1019     1086 1
    1133     1020     1087 1
    1134     1020     1088 1
    1135     1020     1089 1
    1136     1090     1091 1
    1137     1090     1110 1
    1138     1090     1126 1
    1139     1090     1094 1
    1140     1091     1092 1
    1141     1091     1109 1
    1142     1092     1093 1
    1143     1092     1107 1
    1144     1093     1094 1
    1145     1093     1097 1
    1146     1094     1095 1
    1147     1095     1096 1
    1148     1095     1142 1
    1149     1096     1097 1
    1150     1096     1098 1
    1151     1098     1099 1
    1152     1098     1103 1
    1153     1099     1100 1
    1154     1099     1143 1
    1155     1100     1101 1
    1156     1101     1102 1
    1157     1102     1103 1
    1158     1102     1106 1
    1159     1103     1104 1
    1160     1104     1105 1
    1161     1105     1106 1
    1162     1107     1108 1
    1163     1108     1109 1
    1164     1108     1222 1
    1165     1109     1144 1
    1166     1110     1111 1
    1167     1110     1145 1
    1168     1110     1146 1
    1169     1111     1112 1
    1170     1111     1118 1
    1171     1111     1147 1
    1172     1112     1113 1
    1173     1112     1148 1
    1174     1112     1149 1
    1175     1113     1114 1
    1176     1113     1150 1
    1177     1113     1151 1
    1178     1114     1115 1
    1179     1114     1152 1
    1180     1114     1153 1
    1181     1115     1116 1
    1182     1115     1154 1
    1183     1115     1155 1
    1184     1116     1117 1
    1185     1116     1156 1
    1186     1116     1157 1
    1187     1117     1158 1
    1188     1117     1159 1
    1189     1117     1160 1
    1190     1118     1119 1
    1191     1118     1161 1
    1192     1118     1162 1
    1193     1119     1120 1
    1194     1119     1163 1
    1195     1119     1164 1
    1196     1120     1121 1
    1197     1120     1165 1
    1198     1120     1166 1
    1199     1121     1122 1
    1200     1121     1167 1
    1201     1121     1168 1
    1202     1122     1123 1
    1203     1122     1169 1
    1204     1122     1170 1
    1205     1123     1124 1
    1206     1123     1171 1
    1207     1123     1172 1
    1208     1124     1125 1
    1209     1124     1173 1
    1210     1124     1174 1
    1211     1125     1175 1
    1212     1125     1176 1
    1213     1125     1177 1
    1214     1126     1127 1
    1215     1126     1178 1
    1216     1126     1179 1
    1217     1127     1128 1
    1218     1127     1134 1
    1219     1127     1180 1
    1220     1128     1129 1
    1221     1128     1181 1
    1222     1128     1182 1
    1223     1129     1130 1
    1224     1129     1183 1
    1225     1129     1184 1
    1226     1130     1131 1
    1227     1130     1185 1
    1228     1130     1186 1
    1229     1131     1132 1
    1230     1131     1187 1
    1231     1131     1188 1
    1232     1132     1133 1
    1233     1132     1189 1
    1234     1132     1190 1
    1235     1133     1191 1
    1236     1133     1192 1
    1237     1133     1193 1
    1238     1134     1135 1
    1239     1134     1194 1
    1240     1134     1195 1
    1241     1135     1136 1
    1242     1135     1196 1
    1243     1135     1197 1
    1244     1136     1137 1
    1245     1136     1198 1
    1246     1136     1199 1
    1247     1137     1138 1
    1248     1137     1200 1
    1249     1137     1201 1
    1250     1138     1139 1
    1251     1138     1202 1
    1252     1138     1203 1
    1253     1139     1140 1
    1254     1139     1204 1
    1255     1139     1205 1
    1256     1140     1141 1
    1257     1140     1206 1
    1258     1140     1207 1
    1259     1141     1208 1
    1260     1141     1209 1
    1261     1141     1210 1
    1262     1211     1212 1
    1263     1211     1231 1
    1264     1211     1247 1
    1265     1211     1215 1
    1266     1212     1213 1
    1267     1212     1230 1
    1268     1213     1214 1
    1269     1213     1228 1
    1270     1214     1215 1
    1271     1214     1218 1
    1272     1215     1216 1
    1273     1216     1217 1
    1274     1216     1263 1
    1275     1217     1218 1
    1276     1217     1219 1
    1277     1219     1220 1
    1278     1219     1224 1
    1279     1220     1221 1
    1280     1220     1264 1
    1281     1221     1222 1
    1282     1222     1223 1
    1283     1223     1224 1
    1284     1223     1227 1
    1285     1224     1225 1
    1286     1225     1226 1
    1287     1226     1227 1
    1288     1228     1229 1
    1289     1229     1230 1
    1290     1229     1343 1
    1291     1230     1265 1
    1292     1231     1232 1
    1293     1231     1266 1
    1294     1231     1267 1
    1295     1232     1233 1
    1296     1232     1239 1
    1297     1232     1268 1
    1298     1233     1234 1
    1299     1233     1269 1
    1300     1233     1270 1
    1301     1234     1235 1
    1302     1234     1271 1
    1303     1234     1272 1
    1304     1235     1236 1
    1305     1235     1273 1
    1306     1235     1274 1
    1307     1236     1237 1
    1308     1236     1275 1
    1309     1236     1276 1
    1310     1237     1238 1
    1311     1237     1277 1
    1312     1237     1278 1
    1313     1238     1279 1
    1314     1238     1280 1
    1315     1238     1281 1
    1316     1239     1240 1
    1317     1239     1282 1
    1318     1239     1283 1
    1319     1240     1241 1
    1320     1240     1284 1
    1321     1240     1285 1
    1322     1241     1242 1
    1323     1241     1286 1
    1324     1241     1287 1
    1325     1242     1243 1
    1326     1242     1288 1
    1327     1242     1289 1
    1328     1243     1244 1
    1329     1243     1290 1
    1330     1243     1291 1
    1331     1244     1245 1
    1332     1244     1292 1
    1333     1244     1293 1
    1334     1245     1246 1
    1335     1245     1294 1
    1336     1245     1295 1
    1337     1246     1296 1
    1338     1246     1297 1
    1339     1246     1298 1
    1340     1247     1248 1
    1341     1247     1299 1
    1342     1247     1300 1
    1343     1248     1249 1
    1344     1248     1255 1
    1345     1248     1301 1
    1346     1249     1250 1
    1347     1249     1302 1
    1348     1249     1303 1
    1349     1250     1251 1
    1350     1250     1304 1
    1351     1250     1305 1
    1352     1251     1252 1
    1353     1251     1306 1
    1354     1251     1307 1
    1355     1252     1253 1
    1356     1252     1308 1
    1357     1252     1309 1
    1358     1253     1254 1
    1359     1253     1310 1
    1360     1253     1311 1
    1361     1254     1312 1
    1362     1254     1313 1
    1363     1254     1314 1
    1364     1255     1256 1
    1365     1255     1315 1
    1366     1255     1316 1
    1367     1256     1257 1
    1368     1256     1317 1
    1369     1256     1318 1
    1370     1257     1258 1
    1371     1257     1319 1
    1372     1257     1320 1
    1373     1258     1259 1
    1374     1258     1321 1
    1375     1258     1322 1
    1376     1259     1260 1
    1377     1259     1323 1
    1378     1259     1324 1
    1379     1260     1261 1
    1380     1260     1325 1
    1381     1260     1326 1
    1382     1261     1262 1
    1383     1261     1327 1
    1384     1261     1328 1
    1385     1262     1329 1
    1386     1262     1330 1
    1387     1262     1331 1
    1388     1332     1333 1
    1389     1332     1352 1
    1390     1332     1368 1
    1391     1332     1336 1
    1392     1333     1334 1
    1393     1333     1351 1
    1394     1334     1335 1
    1395     1334     1349 1
    1396     1335     1336 1
    1397     1335     1339 1
    1398     1336     1337 1
    1399     1337     1338 1
    1400     1337     1384 1
    1401     1338     1339 1
    1402     1338     1340 1
    1403     1340     1341 1
    1404     1340     1345 1
    1405     1341     1342 1
    1406     1341     1385 1
    1407     1342     1343 1
    1408     1343     1344 1
    1409     1344     1345 1
    1410     1344     1348 1
    1411     1345     1346 1
    1412     1346     1347 1
    1413     1347     1348 1
    1414     1349     1350 1
    1415     1350     1351 1
    1416     1350     1464 1
    1417     1351     1386 1
    1418     1352     1353 1
    1419     1352     1387 1
    1420     1352     1388 1
    1421     1353     1354 1
    1422     1353     1360 1
    1423     1353     1389 1
    1424     1354     1355 1
    1425     1354     1390 1
    1426     1354     1391 1
    1427     1355     1356 1
    1428     1355     1392 1
    1429     1355     1393 1
    1430     1356     1357 1
    1431     1356     1394 1
    1432     1356     1395 1
    1433     1357     1358 1
    1434     1357     1396 1
    1435     1357     1397 1
    1436     1358     1359 1
    1437     1358     1398 1
    1438     1358     1399 1
    1439     1359     1400 1
    1440     1359     1401 1
    1441     1359     1402 1
    1442     1360     1361 1
    1443     1360     1403 1
    1444     1360     1404 1
    1445     1361     1362 1
    1446     1361     1405 1
    1447     1361     1406 1
    1448     1362     1363 1
    1449     1362     1407 1
    1450     1362     1408 1
    1451     1363     1364 1
    1452     1363     1409 1
    1453     1363     1410 1
    1454     1364     1365 1
    1455     1364     1411 1
    1456     1364     1412 1
    1457     1365     1366 1
    1458     1365     1413 1
    1459     1365     1414 1
    1460     1366     1367 1
    1461     1366     1415 1
    1462     1366     1416 1
    1463     1367     1417 1
    1464     1367     1418 1
    1465     1367     1419 1
    1466     1368     1369 1
    1467     1368     1420 1
    1468     1368     1421 1
    1469     1369     1370 1
    1470     1369     1376 1
    1471     1369     1422 1
    1472     1370     1371 1
    1473     1370     1423 1
    1474     1370     1424 1
    1475     1371     1372 1
    1476     1371     1425 1
    1477     1371     1426 1
    1478     1372     1373 1
    1479     1372     1427 1
    1480     1372     1428 1
    1481     1373     1374 1
    1482     1373     1429 1
    1483     1373     1430 1
    1484     1374     1375 1
    1485     1374     1431 1
    1486     1374     1432 1
    1487     1375     1433 1
    1488     1375     1434 1
    1489     1375     1435 1
    1490     1376     1377 1
    1491     1376     1436 1
    1492     1376     1437 1
    1493     1377     1378 1
    1494     1377     1438 1
    1495     1377     1439 1
    1496     1378     1379 1
    1497     1378     1440 1
    1498     1378     1441 1
    1499     1379     1380 1
    1500     1379     1442 1
    1501     1379     1443 1
    1502     1380     1381 1
    1503     1380     1444 1
    1504     1380     1445 1
    1505     1381     1382 1
    1506     1381     1446 1
    1507     1381     1447 1
    1508     1382     1383 1
    1509     1382     1448 1
    1510     1382     1449 1
    1511     1383     1450 1
    1512     1383     1451 1
    1513     1383     1452 1
    1514     1453     1454 1
    1515     1453     1473 1
    1516     1453     1489 1
    1517     1453     1457 1
    1518     1454     1455 1
    1519     1454     1472 1
    1520     1455     1456 1
    1521     1455     1470 1
    1522     1456     1457 1
    1523     1456     1460 1
    1524     1457     1458 1
    1525     1458     1459 1
    1526     1458     1505 1
    1527     1459     1460 1
    1528     1459     1461 1
    1529     1461     1462 1
    1530     1461     1466 1
    1531     1462     1463 1
    1532     1462     1506 1
    1533     1463     1464 1
    1534     1464     1465 1
    1535     1465     1466 1
    1536     1465     1469 1
    1537     1466     1467 1
    1538     1467     1468 1
    1539     1468     1469 1
    1540     1470     1471 1
    1541     1471     1472 1
    1542     1471     1585 1
    1543     1472     1507 1
    1544     1473     1474 1
    1545     1473     1508 1
    1546     1473     1509 1
    1547     1474     1475 1
    1548     1474     1481 1
    1549     1474     1510 1
    1550     1475     1476 1
    1551     1475     1511 1
    1552     1475     1512 1
    1553     1476     1477 1
    1554     1476     1513 1
    1555     1476     1514 1
    1556     1477     1478 1
    1557     1477     1515 1
    1558     1477     1516 1
    1559     1478     1479 1
    1560     1478     1517 1
    1561     1478     1518 1
    1562     1479     1480 1
    1563     1479     1519 1
    1564     1479     1520 1
    1565     1480     1521 1
    1566     1480     1522 1
    1567     1480     1523 1
    1568     1481     1482 1
    1569     1481     1524 1
    1570     1481     1525 1
    1571     1482     1483 1
    1572     1482     1526 1
    1573     1482     1527 1
    1574     1483     1484 1
    1575     1483     1528 1
    1576     1483     1529 1
    1577     1484     1485 1
    1578     1484     1530 1
    1579     1484     1531 1
    1580     1485     1486 1
    1581     1485     1532 1
    1582     1485     1533 1
    1583     1486     1487 1
    1584     1486     1534 1
    1585     1486     1535 1
    1586     1487     1488 1
    1587     1487     1536 1
    1588     1487     1537 1
    1589     1488     1538 1
    1590     1488     1539 1
    1591     1488     1540 1
    1592     1489     1490 1
    1593     1489     1541 1
    1594     1489     1542 1
    1595     1490     1491 1
    1596     1490     1497 1
    1597     1490     1543 1
    1598     1491     1492 1
    1599     1491     1544 1
    1600     1491     1545 1
    1601     1492     1493 1
    1602     1492     1546 1
    1603     1492     1547 1
    1604     1493     1494 1
    1605     1493     1548 1
    1606     1493     1549 1
    1607     1494     1495 1
    1608     1494     1550 1
    1609     1494     1551 1
    1610     1495     1496 1
    1611     1495     1552 1
    1612     1495     1553 1
    1613     1496     1554 1
    1614     1496     1555 1
    1615     1496     1556 1
    1616     1497     1498 1
    1617     1497     1557 1
    1618     1497     1558 1
    1619     1498     1499 1
    1620     1498     1559 1
    1621     1498     1560 1
    1622     1499     1500 1
    1623     1499     1561 1
    1624     1499     1562 1
    1625     1500     1501 1
    1626     1500     1563 1
    1627     1500     1564 1
    1628     1501     1502 1
    1629     1501     1565 1
    1630     1501     1566 1
    1631     1502     1503 1
    1632     1502     1567 1
    1633     1502     1568 1
    1634     1503     1504 1
    1635     1503     1569 1
    1636     1503     1570 1
    1637     1504     1571 1
    1638     1504     1572 1
    1639     1504     1573 1
    1640     1574     1575 1
    1641     1574     1594 1
    1642     1574     1610 1
    1643     1574     1578 1
    1644     1575     1576 1
    1645     1575     1593 1
    1646     1576     1577 1
    1647     1576     1591 1
    1648     1577     1578 1
    1649     1577     1581 1
    1650     1578     1579 1
    1651     1579     1580 1
    1652     1579     1626 1
    1653     1580     1581 1
    1654     1580     1582 1
    1655     1582     1583 1
    1656     1582     1587 1
    1657     1583     1584 1
    1658     1583     1627 1
    1659     1584     1585 1
    1660     1585     1586 1
    1661     1586     1587 1
    1662     1586     1590 1
    1663     1587     1588 1
    1664     1588     1589 1
    1665     1589     1590 1
    1666     1591     1592 1
    1667     1592     1593 1
    1668     1592     1706 1
    1669     1593     1628 1
    1670     1594     1595 1
    1671     1594     1629 1
    1672     1594     1630 1
    1673     1595     1596 1
    1674     1595     1602 1
    1675     1595     1631 1
    1676     1596     1597 1
    1677     1596     1632 1
    1678     1596     1633 1
    1679     1597     1598 1
    1680     1597     1634 1
    1681     1597     1635 1
    1682     1598     1599 1
    1683     1598     1636 1
    1684     1598     1637 1
    1685     1599     1600 1
    1686     1599     1638 1
    1687     1599     1639 1
    1688     1600     1601 1
    1689     1600     1640 1
    1690     1600     1641 1
    1691     1601     1642 1
    1692     1601     1643 1
    1693     1601     1644 1
    1694     1602     1603 1
    1695     1602     1645 1
    1696     1602     1646 1
    1697     1603     1604 1
    1698     1603     1647 1
    1699     1603     1648 1
    1700     1604     1605 1
    1701     1604     1649 1
    1702     1604     1650 1
    1703     1605     1606 1
    1704     1605     1651 1
    1705     1605     1652 1
    1706     1606     1607 1
    1707     1606     1653 1
    1708     1606     1654 1
    1709     1607     1608 1
    1710     1607     1655 1
    1711     1607     1656 1
    1712     1608     1609 1
    1713     1608     1657 1
    1714     1608     1658 1
    1715     1609     1659 1
    1716     1609     1660 1
    1717     1609     1661 1
    1718     1610     1611 1
    1719     1610     1662 1
    1720     1610     1663 1
    1721     1611     1612 1
    1722     1611     1618 1
    1723     1611     1664 1
    1724     1612     1613 1
    1725     1612     1665 1
    1726     1612     1666 1
    1727     1613     1614 1
    1728     1613     1667 1
    1729     1613     1668 1
    1730     1614     1615 1
    1731     1614     1669 1
    1732     1614     1670 1
    1733     1615     1616 1
    1734     1615     1671 1
    1735     1615     1672 1
    1736     1616     1617 1
    1737     1616     1673 1
    1738     1616     1674 1
    1739     1617     1675 1
    1740     1617     1676 1
    1741     1617     1677 1
    1742     1618     1619 1
    1743     1618     1678 1
    1744     1618     1679 1
    1745     1619     1620 1
    1746     1619     1680 1
    1747     1619     1681 1
    1748     1620     1621 1
    1749     1620     1682 1
    1750     1620     1683 1
    1751     1621     1622 1
    1752     1621     1684 1
    1753     1621     1685 1
    1754     1622     1623 1
    1755     1622     1686 1
    1756     1622     1687 1
    1757     1623     1624 1
    1758     1623     1688 1
    1759     1623     1689 1
    1760     1624     1625 1
    1761     1624     1690 1
    1762     1624     1691 1
    1763     1625     1692 1
    1764     1625     1693 1
    1765     1625     1694 1
    1766     1695     1696 1
    1767     1695     1715 1
    1768     1695     1731 1
    1769     1695     1699 1
    1770     1696     1697 1
    1771     1696     1714 1
    1772     1697     1698 1
    1773     1697     1712 1
    1774     1698     1699 1
    1775     1698     1702 1
    1776     1699     1700 1
    1777     1700     1701 1
    1778     1700     1747 1
    1779     1701     1702 1
    1780     1701     1703 1
    1781     1703     1704 1
    1782     1703     1708 1
    1783     1704     1705 1
    1784     1704     1748 1
    1785     1705     1706 1
    1786     1706     1707 1
    1787     1707     1708 1
    1788     1707     1711 1
    1789     1708     1709 1
    1790     1709     1710 1
    1791     1710     1711 1
    1792     1712     1713 1
    1793     1713     1714 1
    1794     1713     1827 1
    1795     1714     1749 1
    1796     1715     1716 1
    1797     1715     1750 1
    1798     1715     1751 1
    1799     1716     1717 1
    1800     1716     1723 1
    1801     1716     1752 1
    1802     1717     1718 1
    1803     1717     1753 1
    1804     1717     1754 1
    1805     1718     1719 1
    1806     1718     1755 1
    1807     1718     1756 1
    1808     1719     1720 1
    1809     1719     1757 1
    1810     1719     1758 1
    1811     1720     1721 1
    1812     1720     1759 1
    1813     1720     1760 1
    1814     1721     1722 1
    1815     1721     1761 1
    1816     1721     1762 1
    1817     1722     1763 1
    1818     1722     1764 1
    1819     1722     1765 1
    1820     1723     1724 1
    1821     1723     1766 1
    1822     1723     1767 1
    1823     1724     1725 1
    1824     1724     1768 1
    1825     1724     1769 1
    1826     1725     1726 1
    1827     1725     1770 1
    1828     1725     1771 1
    1829     1726     1727 1
    1830     1726     1772 1
    1831     1726     1773 1
    1832     1727     1728 1
    1833     1727     1774 1
    1834     1727     1775 1
    1835     1728     1729 1
    1836     1728     1776 1
    1837     1728     1777 1
    1838     1729     1730 1
    1839     1729     1778 1
    1840     1729     1779 1
    1841     1730     1780 1
    1842     1730     1781 1
    1843     1730     1782 1
    1844     1731     1732 1
    1845     1731     1783 1
    1846     1731     1784 1
    1847     1732     1733 1
    1848     1732     1739 1
    1849     1732     1785 1
    1850     1733     1734 1
    1851     1733     1786 1
    1852     1733     1787 1
    1853     1734     1735 1
    1854     1734     1788 1
    1855     1734     1789 1
    1856     1735     1736 1
    1857     1735     1790 1
    1858     1735     1791 1
    1859     1736     1737 1
    1860     1736     1792 1
    1861     1736     1793 1
    1862     1737     1738 1
    1863     1737     1794 1
    1864     1737     1795 1
    1865     1738     1796 1
    1866     1738     1797 1
    1867     1738     1798 1
    1868     1739     1740 1
    1869     1739     1799 1
    1870     1739     1800 1
    1871     1740     1741 1
    1872     1740     1801 1
    1873     1740     1802 1
    1874     1741     1742 1
    1875     1741     1803 1
    1876     1741     1804 1
    1877     1742     1743 1
    1878     1742     1805 1
    1879     1742     1806 1
    1880     1743     1744 1
    1881     1743     1807 1
    1882     1743     1808 1
    1883     1744     1745 1
    1884     1744     1809 1
    1885     1744     1810 1
    1886     1745     1746 1
    1887     1745     1811 1
    1888     1745     1812 1
    1889     1746     1813 1
    1890     1746     1814 1
    1891     1746     1815 1
    1892     1816     1817 1
    1893     1816     1836 1
    1894     1816     1852 1
    1895     1816     1820 1
    1896     1817     1818 1
    1897     1817     1835 1
    1898     1818     1819 1
    1899     1818     1833 1
    1900     1819     1820 1
    1901     1819     1823 1
    1902     1820     1821 1
    1903     1821     1822 1
    1904     1821     1868 1
    1905     1822     1823 1
    1906     1822     1824 1
    1907     1824     1825 1
    1908     1824     1829 1
    1909     1825     1826 1
    1910     1825     1869 1
    1911     1826     1827 1
    1912     1827     1828 1
    1913     1828     1829 1
    1914     1828     1832 1
    1915     1829     1830 1
    1916     1830     1831 1
    1917     1831     1832 1
    1918     1833     1834 1
    1919     1834     1835 1
    1920     1834     1948 1
    1921     1835     1870 1
    1922     1836     1837 1
    1923     1836     1871 1
    1924     1836     1872 1
    1925     1837     1838 1
    1926     1837     1844 1
    1927     1837     1873 1
    1928     1838     1839 1
    1929     1838     1874 1
    1930     1838     1875 1
    1931     1839     1840 1
    1932     1839     1876 1
    1933     1839     1877 1
    1934     1840     1841 1
    1935     1840     1878 1
    1936     1840     1879 1
    1937     1841     1842 1
    1938     1841     1880 1
    1939     1841     1881 1
    1940     1842     1843 1
    1941     1842     1882 1
    1942     1842     1883 1
    1943     1843     1884 1
    1944     1843     1885 1
    1945     1843     1886 1
    1946     1844     1845 1
    1947     1844     1887 1
    1948     1844     1888 1
    1949     1845     1846 1
    1950     1845     1889 1
    1951     1845     1890 1
    1952     1846     1847 1
    1953     1846     1891 1
    1954     1846     1892 1
    1955     1847     1848 1
    1956     1847     1893 1
    1957     1847     1894 1
    1958     1848     1849 1
    1959     1848     1895 1
    1960     1848     1896 1
    1961     1849     1850 1
    1962     1849     1897 1
    1963     1849     1898 1
    1964     1850     1851 1
    1965     1850     1899 1
    1966     1850     1900 1
    1967     1851     1901 1
    1968     1851     1902 1
    1969     1851     1903 1
    1970     1852     1853 1
    1971     1852     1904 1
    1972     1852     1905 1
    1973     1853     1854 1
    1974     1853     1860 1
    1975     1853     1906 1
    1976     1854     1855 1
    1977     1854     1907 1
    1978     1854     1908 1
    1979     1855     1856 1
    1980     1855     1909 1
    1981     1855     1910 1
    1982     1856     1857 1
    1983     1856     1911 1
    1984     1856     1912 1
    1985     1857     1858 1
    1986     1857     1913 1
    1987     1857     1914 1
    1988     1858     1859 1
    1989     1858     1915 1
    1990     1858     1916 1
    1991     1859     1917 1
    1992     1859     1918 1
    1993     1859     1919 1
    1994     1860     1861 1
    1995     1860     1920 1
    1996     1860     1921 1
    1997     1861     1862 1
    1998     1861     1922 1
    1999     1861     1923 1
    2000     1862     1863 1
    2001     1862     1924 1
    2002     1862     1925 1
    2003     1863     1864 1
    2004     1863     1926 1
    2005     1863     1927 1
    2006     1864     1865 1
    2007     1864     1928 1
    2008     1864     1929 1
    2009     1865     1866 1
    2010     1865     1930 1
    2011     1865     1931 1
    2012     1866     1867 1
    2013     1866     1932 1
    2014     1866     1933 1
    2015     1867     1934 1
    2016     1867     1935 1
    2017     1867     1936 1
    2018     1937     1938 1
    2019     1937     1957 1
    2020     1937     1973 1
    2021     1937     1941 1
    2022     1938     1939 1
    2023     1938     1956 1
    2024     1939     1940 1
    2025     1939     1954 1
    2026     1940     1941 1
    2027     1940     1944 1
    2028     1941     1942 1
    2029     1942     1943 1
    2030     1942     1989 1
    2031     1943     1944 1
    2032     1943     1945 1
    2033     1945     1946 1
    2034     1945     1950 1
    2035     1946     1947 1
    2036     1946     1990 1
    2037     1947     1948 1
    2038     1948     1949 1
    2039     1949     1950 1
    2040     1949     1953 1
    2041     1950     1951 1
    2042     1951     1952 1
    2043     1952     1953 1
    2044     1954     1955 1
    2045     1955     1956 1
    2046     1955     2069 1
    2047     1956     1991 1
    2048     1957     1958 1
    2049     1957     1992 1
    2050     1957     1993 1
    2051     1958     1959 1
    2052     1958     1965 1
    2053     1958     1994 1
    2054     1959     1960 1
    2055     1959     1995 1
    2056     1959     1996 1
    2057     1960     1961 1
    2058     1960     1997 1
    2059     1960     1998 1
    2060     1961     1962 1
    2061     1961     1999 1
    2062     1961     2000 1
    2063     1962     1963 1
    2064     1962     2001 1
    2065     1962     2002 1
    2066     1963     1964 1
    2067     1963     2003 1
    2068     1963     2004 1
    2069     1964     2005 1
    2070     1964     2006 1
    2071     1964     2007 1
    2072     1965     1966 1
    2073     1965     2008 1
    2074     1965     2009 1
    2075     1966     1967 1
    2076     1966     2010 1
    2077     1966     2011 1
    2078     1967     1968 1
    2079     1967     2012 1
    2080     1967     2013 1
    2081     1968     1969 1
    2082     1968     2014 1
    2083     1968     2015 1
    2084     1969     1970 1
    2085     1969     2016 1
    2086     1969     2017 1
    2087     1970     1971 1
    2088     1970     2018 1
    2089     1970     2019 1
    2090     1971     1972 1
    2091     1971     2020 1
    2092     1971     2021 1
    2093     1972     2022 1
    2094     1972     2023 1
    2095     1972     2024 1
    2096     1973     1974 1
    2097     1973     2025 1
    2098     1973     2026 1
    2099     1974     1975 1
    2100     1974     1981 1
    2101     1974     2027 1
    2102     1975     1976 1
    2103     1975     2028 1
    2104     1975     2029 1
    2105     1976     1977 1
    2106     1976     2030 1
    2107     1976     2031 1
    2108     1977     1978 1
    2109     1977     2032 1
    2110     1977     2033 1
    2111     1978     1979 1
    2112     1978     2034 1
    2113     1978     2035 1
    2114     1979     1980 1
    2115     1979     2036 1
    2116     1979     2037 1
    2117     1980     2038 1
    2118     1980     2039 1
    2119     1980     2040 1
    2120     1981     1982 1
    2121     1981     2041 1
    2122     1981     2042 1
    2123     1982     1983 1
    2124     1982     2043 1
    2125     1982     2044 1
    2126     1983     1984 1
    2127     1983     2045 1
    2128     1983     2046 1
    2129     1984     1985 1
    2130     1984     2047 1
    2131     1984     2048 1
    2132     1985     1986 1
    2133     1985     2049 1
    2134     1985     2050 1
    2135     1986     1987 1
    2136     1986     2051 1
    2137     1986     2052 1
    2138     1987     1988 1
    2139     1987     2053 1
    2140     1987     2054 1
    2141     1988     2055 1
    2142     1988     2056 1
    2143     1988     2057 1
    2144     2058     2059 1
    2145     2058     2078 1
    2146     2058     2094 1
    2147     2058     2062 1
    2148     2059     2060 1
    2149     2059     2077 1
    2150     2060     2061 1
    2151     2060     2075 1
    2152     2061     2062 1
    2153     2061     2065 1
    2154     2062     2063 1
    2155     2063     2064 1
    2156     2063     2110 1
    2157     2064     2065 1
    2158     2064     2066 1
    2159     2066     2067 1
    2160     2066     2071 1
    2161     2067     2068 1
    2162     2067     2111 1
    2163     2068     2069 1
    2164     2069     2070 1
    2165     2070     2071 1
    2166     2070     2074 1
    2167     2071     2072 1
    2168     2072     2073 1
    2169     2073     2074 1
    2170     2075     2076 1
    2171     2076     2077 1
    2172     2076     2190 1
    2173     2077     2112 1
    2174     2078     2079 1
    2175     2078     2113 1
    2176     2078     2114 1
    2177     2079     2080 1
    2178     2079     2086 1
    2179     2079     2115 1
    2180     2080     2081 1
    2181     2080     2116 1
    2182     2080     2117 1
    2183     2081     2082 1
    2184     2081     2118 1
    2185     2081     2119 1
    2186     2082     2083 1
    2187     2082     2120 1
    2188     2082     2121 1
    2189     2083     2084 1
    2190     2083     2122 1
    2191     2083     2123 1
    2192     2084     2085 1
    2193     2084     2124 1
    2194     2084     2125 1
    2195     2085     2126 1
    2196     2085     2127 1
    2197     2085     2128 1
    2198     2086     2087 1
    2199     2086     2129 1
    2200     2086     2130 1
    2201     2087     2088 1
    2202     2087     2131 1
    2203     2087     2132 1
    2204     2088     2089 1
    2205     2088     2133 1
    2206     2088     2134 1
    2207     2089     2090 1
    2208     2089     2135 1
    2209     2089     2136 1
    2210     2090     2091 1
    2211     2090     2137 1
    2212     2090     2138 1
    2213     2091     2092 1
    2214     2091     2139 1
    2215     2091     2140 1
    2216     2092     2093 1
    2217     2092     2141 1
    2218     2092     2142 1
    2219     2093     2143 1
    2220     2093     2144 1
    2221     2093     2145 1
    2222     2094     2095 1
    2223     2094     2146 1
    2224     2094     2147 1
    2225     2095     2096 1
    2226     2095     2102 1
    2227     2095     2148 1
    2228     2096     2097 1
    2229     2096     2149 1
    2230     2096     2150 1
    2231     2097     2098 1
    2232     2097     2151 1
    2233     2097     2152 1
    2234     2098     2099 1
    2235     2098     2153 1
    2236     2098     2154 1
    2237     2099     2100 1
    2238     2099     2155 1
    2239     2099     2156 1
    2240     2100     2101 1
    2241     2100     2157 1
    2242     2100     2158 1
    2243     2101     2159 1
    2244     2101     2160 1
    2245     2101     2161 1
    2246     2102     2103 1
    2247     2102     2162 1
    2248     2102     2163 1
    2249     2103     2104 1
    2250     2103     2164 1
    2251     2103     2165 1
    2252     2104     2105 1
    2253     2104     2166 1
    2254     2104     2167 1
    2255     2105     2106 1
    2256     2105     2168 1
    2257     2105     2169 1
    2258     2106     2107 1
    2259     2106     2170 1
    2260     2106     2171 1
    2261     2107     2108 1
    2262     2107     2172 1
    2263     2107     2173 1
    2264     2108     2109 1
    2265     2108     2174 1
    2266     2108     2175 1
    2267     2109     2176 1
    2268     2109     2177 1
    2269     2109     2178 1
    2270     2179     2180 1
    2271     2179     2199 1
    2272     2179     2215 1
    2273     2179     2183 1
    2274     2180     2181 1
    2275     2180     2198 1
    2276     2181     2182 1
    2277     2181     2196 1
    2278     2182     2183 1
    2279     2182     2186 1
    2280     2183     2184 1
    2281     2184     2185 1
    2282     2184     2231 1
    2283     2185     2186 1
    2284     2185     2187 1
    2285     2187     2188 1
    2286     2187     2192 1
    2287     2188     2189 1
    2288     2188     2232 1
    2289     2189     2190 1
    2290     2190     2191 1
    2291     2191     2192 1
    2292     2191     2195 1
    2293     2192     2193 1
    2294     2193     2194 1
    2295     2194     2195 1
    2296     2196     2197 1
    2297     2197     2198 1
    2298     2197     2311 1
    2299     2198     2233 1
    2300     2199     2200 1
    2301     2199     2234 1
    2302     2199     2235 1
    2303     2200     2201 1
    2304     2200     2207 1
    2305     2200     2236 1
    2306     2201     2202 1
    2307     2201     2237 1
    2308     2201     2238 1
    2309     2202     2203 1
    2310     2202     2239 1
    2311     2202     2240 1
    2312     2203     2204 1
    2313     2203     2241 1
    2314     2203     2242 1
    2315     2204     2205 1
    2316     2204     2243 1
    2317     2204     2244 1
    2318     2205     2206 1
    2319     2205     2245 1
    2320     2205     2246 1
    2321     2206     2247 1
    2322     2206     2248 1
    2323     2206     2249 1
    2324     2207     2208 1
    2325     2207     2250 1
    2326     2207     2251 1
    2327     2208     2209 1
    2328     2208     2252 1
    2329     2208     2253 1
    2330     2209     2210 1
    2331     2209     2254 1
    2332     2209     2255 1
    2333     2210     2211 1
    2334     2210     2256 1
    2335     2210     2257 1
    2336     2211     2212 1
    2337     2211     2258 1
    2338     2211     2259 1
    2339     2212     2213 1
    2340     2212     2260 1
    2341     2212     2261 1
    2342     2213     2214 1
    2343     2213     2262 1
    2344     2213     2263 1
    2345     2214     2264 1
    2346     2214     2265 1
    2347     2214     2266 1
    2348     2215     2216 1
    2349     2215     2267 1
    2350     2215     2268 1
    2351     2216     2217 1
    2352     2216     2223 1
    2353     2216     2269 1
    2354     2217     2218 1
    2355     2217     2270 1
    2356     2217     2271 1
    2357     2218     2219 1
    2358     2218     2272 1
    2359     2218     2273 1
    2360     2219     2220 1
    2361     2219     2274 1
    2362     2219     2275 1
    2363     2220     2221 1
    2364     2220     2276 1
    2365     2220     2277 1
    2366     2221     2222 1
    2367     2221     2278 1
    2368     2221     2279 1
    2369     2222     2280 1
    2370     2222     2281 1
    2371     2222     2282 1
    2372     2223     2224 1
    2373     2223     2283 1
    2374     2223     2284 1
    2375     2224     2225 1
    2376     2224     2285 1
    2377     2224     2286 1
    2378     2225     2226 1
    2379     2225     2287 1
    2380     2225     2288 1
    2381     2226     2227 1
    2382     2226     2289 1
    2383     2226     2290 1
    2384     2227     2228 1
    2385     2227     2291 1
    2386     2227     2292 1
    2387     2228     2229 1
    2388     2228     2293 1
    2389     2228     2294 1
    2390     2229     2230 1
    2391     2229     2295 1
    2392     2229     2296 1
    2393     2230     2297 1
    2394     2230     2298 1
    2395     2230     2299 1
    2396     2300     2301 1
    2397     2300     2320 1
    2398     2300     2336 1
    2399     2300     2304 1
    2400     2301     2302 1
    2401     2301     2319 1
    2402     2302     2303 1
    2403     2302     2317 1
    2404     2303     2304 1
    2405     2303     2307 1
    2406     2304     2305 1
    2407     2305     2306 1
    2408     2305     2352 1
    2409     2306     2307 1
    2410     2306     2308 1
    2411     2308     2309 1
    2412     2308     2313 1
    2413     2309     2310 1
    2414     2309     2353 1
    2415     2310     2311 1
    2416     2311     2312 1
    2417     2312     2313 1
    2418     2312     2316 1
    2419     2313     2314 1
    2420     2314     2315 1
    2421     2315     2316 1
    2422     2317     2318 1
    2423     2318     2319 1
    2424     2318     2432 1
    2425     2319     2354 1
    2426     2320     2321 1
    2427     2320     2355 1
    2428     2320     2356 1
    2429     2321     2322 1
    2430     2321     2328 1
    2431     2321     2357 1
    2432     2322     2323 1
    2433     2322     2358 1
    2434     2322     2359 1
    2435     2323     2324 1
    2436     2323     2360 1
    2437     2323     2361 1
    2438     2324     2325 1
    2439     2324     2362 1
    2440     2324     2363 1
    2441     2325     2326 1
    2442     2325     2364 1
    2443     2325     2365 1
    2444     2326     2327 1
    2445     2326     2366 1
    2446     2326     2367 1
    2447     2327     2368 1
    2448     2327     2369 1
    2449     2327     2370 1
    2450     2328     2329 1
    2451     2328     2371 1
    2452     2328     2372 1
    2453     2329     2330 1
    2454     2329     2373 1
    2455     2329     2374 1
    2456     2330     2331 1
    2457     2330     2375 1
    2458     2330     2376 1
    2459     2331     2332 1
    2460     2331     2377 1
    2461     2331     2378 1
    2462     2332     2333 1
    2463     2332     2379 1
    2464     2332     2380 1
    2465     2333     2334 1
    2466     2333     2381 1
    2467     2333     2382 1
    2468     2334     2335 1
    2469     2334     2383 1
    2470     2334     2384 1
    2471     2335     2385 1
    2472     2335     2386 1
    2473     2335     2387 1
    2474     2336     2337 1
    2475     2336     2388 1
    2476     2336     2389 1
    2477     2337     2338 1
    2478     2337     2344 1
    2479     2337     2390 1
    2480     2338     2339 1
    2481     2338     2391 1
    2482     2338     2392 1
    2483     2339     2340 1
    2484     2339     2393 1
    2485     2339     2394 1
    2486     2340     2341 1
    2487     2340     2395 1
    2488     2340     2396 1
    2489     2341     2342 1
    2490     2341     2397 1
    2491     2341     2398 1
    2492     2342     2343 1
    2493     2342     2399 1
    2494     2342     2400 1
    2495     2343     2401 1
    2496     2343     2402 1
    2497     2343     2403 1
    2498     2344     2345 1
    2499     2344     2404 1
    2500     2344     2405 1
    2501     2345     2346 1
    2502     2345     2406 1
    2503     2345     2407 1
    2504     2346     2347 1
    2505     2346     2408 1
    2506     2346     2409 1
    2507     2347     2348 1
    2508     2347     2410 1
    2509     2347     2411 1
    2510     2348     2349 1
    2511     2348     2412 1
    2512     2348     2413 1
    2513     2349     2350 1
    2514     2349     2414 1
    2515     2349     2415 1
    2516     2350     2351 1
    2517     2350     2416 1
    2518     2350     2417 1
    2519     2351     2418 1
    2520     2351     2419 1
    2521     2351     2420 1
    2522     2421     2422 1
    2523     2421     2441 1
    2524     2421     2457 1
    2525     2421     2425 1
    2526     2422     2423 1
    2527     2422     2440 1
    2528     2423     2424 1
    2529     2423     2438 1
    2530     2424     2425 1
    2531     2424     2428 1
    2532     2425     2426 1
    2533     2426     2427 1
    2534     2426     2473 1
    2535     2427     2428 1
    2536     2427     2429 1
    2537     2429     2430 1
    2538     2429     2434 1
    2539     2430     2431 1
    2540     2430     2474 1
    2541     2431     2432 1
    2542     2432     2433 1
    2543     2433     2434 1
    2544     2433     2437 1
    2545     2434     2435 1
    2546     2435     2436 1
    2547     2436     2437 1
    2548     2438     2439 1
    2549     2439     2440 1
    2550     2439     2553 1
    2551     2440     2475 1
    2552     2441     2442 1
    2553     2441     2476 1
    2554     2441     2477 1
    2555     2442     2443 1
    2556     2442     2449 1
    2557     2442     2478 1
    2558     2443     2444 1
    2559     2443     2479 1
    2560     2443     2480 1
    2561     2444     2445 1
    2562     2444     2481 1
    2563     2444     2482 1
    2564     2445     2446 1
    2565     2445     2483 1
    2566     2445     2484 1
    2567     2446     2447 1
    2568     2446     2485 1
    2569     2446     2486 1
    2570     2447     2448 1
    2571     2447     2487 1
    2572     2447     2488 1
    2573     2448     2489 1
    2574     2448     2490 1
    2575     2448     2491 1
    2576     2449     2450 1
    2577     2449     2492 1
    2578     2449     2493 1
    2579     2450     2451 1
    2580     2450     2494 1
    2581     2450     2495 1
    2582     2451     2452 1
    2583     2451     2496 1
    2584     2451     2497 1
    2585     2452     2453 1
    2586     2452     2498 1
    2587     2452     2499 1
    2588     2453     2454 1
    2589     2453     2500 1
    2590     2453     2501 1
    2591     2454     2455 1
    2592     2454     2502 1
    2593     2454     2503 1
    2594     2455     2456 1
    2595     2455     2504 1
    2596     2455     2505 1
    2597     2456     2506 1
    2598     2456     2507 1
    2599     2456     2508 1
    2600     2457     2458 1
    2601     2457     2509 1
    2602     2457     2510 1
    2603     2458     2459 1
    2604     2458     2465 1
    2605     2458     2511 1
    2606     2459     2460 1
    2607     2459     2512 1
    2608     2459     2513 1
    2609     2460     2461 1
    2610     2460     2514 1
    2611     2460     2515 1
    2612     2461     2462 1
    2613     2461     2516 1
    2614     2461     2517 1
    2615     2462     2463 1
    2616     2462     2518 1
    2617     2462     2519 1
    2618     2463     2464 1
    2619     2463     2520 1
    2620     2463     2521 1
    2621     2464     2522 1
    2622     2464     2523 1
    2623     2464     2524 1
    2624     2465     2466 1
    2625     2465     2525 1
    2626     2465     2526 1
    2627     2466     2467 1
    2628     2466     2527 1
    2629     2466     2528 1
    2630     2467     2468 1
    2631     2467     2529 1
    2632     2467     2530 1
    2633     2468     2469 1
    2634     2468     2531 1
    2635     2468     2532 1
    2636     2469     2470 1
    2637     2469     2533 1
    2638     2469     2534 1
    2639     2470     2471 1
    2640     2470     2535 1
    2641     2470     2536 1
    2642     2471     2472 1
    2643     2471     2537 1
    2644     2471     2538 1
    2645     2472     2539 1
    2646     2472     2540 1
    2647     2472     2541 1
    2648     2542     2543 1
    2649     2542     2562 1
    2650     2542     2578 1
    2651     2542     2546 1
    2652     2543     2544 1
    2653     2543     2561 1
    2654     2544     2545 1
    2655     2544     2559 1
    2656     2545     2546 1
    2657     2545     2549 1
    2658     2546     2547 1
    2659     2547     2548 1
    2660     2547     2594 1
    2661     2548     2549 1
    2662     2548     2550 1
    2663     2550     2551 1
    2664     2550     2555 1
    2665     2551     2552 1
    2666     2551     2595 1
    2667     2552     2553 1
    2668     2553     2554 1
    2669     2554     2555 1
    2670     2554     2558 1
    2671     2555     2556 1
    2672     2556     2557 1
    2673     2557     2558 1
    2674     2559     2560 1
    2675     2560     2561 1
    2676     2560     2674 1
    2677     2561     2596 1
    2678     2562     2563 1
    2679     2562     2597 1
    2680     2562     2598 1
    2681     2563     2564 1
    2682     2563     2570 1
    2683     2563     2599 1
    2684     2564     2565 1
    2685     2564     2600 1
    2686     2564     2601 1
    2687     2565     2566 1
    2688     2565     2602 1
    2689     2565     2603 1
    2690     2566     2567 1
    2691     2566     2604 1
    2692     2566     2605 1
    2693     2567     2568 1
    2694     2567     2606 1
    2695     2567     2607 1
    2696     2568     2569 1
    2697     2568     2608 1
    2698     2568     2609 1
    2699     2569     2610 1
    2700     2569     2611 1
    2701     2569     2612 1
    2702     2570     2571 1
    2703     2570     2613 1
    2704     2570     2614 1
    2705     2571     2572 1
    2706     2571     2615 1
    2707     2571     2616 1
    2708     2572     2573 1
    2709     2572     2617 1
    2710     2572     2618 1
    2711     2573     2574 1
    2712     2573     2619 1
    2713     2573     2620 1
    2714     2574     2575 1
    2715     2574     2621 1
    2716     2574     2622 1
    2717     2575     2576 1
    2718     2575     2623 1
    2719     2575     2624 1
    2720     2576     2577 1
    2721     2576     2625 1
    2722     2576     2626 1
    2723     2577     2627 1
    2724     2577     2628 1
    2725     2577     2629 1
    2726     2578     2579 1
    2727     2578     2630 1
    2728     2578     2631 1
    2729     2579     2580 1
    2730     2579     2586 1
    2731     2579     2632 1
    2732     2580     2581 1
    2733     2580     2633 1
    2734     2580     2634 1
    2735     2581     2582 1
    2736     2581     2635 1
    2737     2581     2636 1
    2738     2582     2583 1
    2739     2582     2637 1
    2740     2582     2638 1
    2741     2583     2584 1
    2742     2583     2639 1
    2743     2583     2640 1
    2744     2584     2585 1
    2745     2584     2641 1
    2746     2584     2642 1
    2747     2585     2643 1
    2748     2585     2644 1
    2749     2585     2645 1
    2750     2586     2587 1
    2751     2586     2646 1
    2752     2586     2647 1
    2753     2587     2588 1
    2754     2587     2648 1
    2755     2587     2649 1
    2756     2588     2589 1
    2757     2588     2650 1
    2758     2588     2651 1
    2759     2589     2590 1
    2760     2589     2652 1
    2761     2589     2653 1
    2762     2590     2591 1
    2763     2590     2654 1
    2764     2590     2655 1
    2765     2591     2592 1
    2766     2591     2656 1
    2767     2591     2657 1
    2768     2592     2593 1
    2769     2592     2658 1
    2770     2592     2659 1
    2771     2593     2660 1
    2772     2593     2661 1
    2773     2593     2662 1
    2774     2663     2664 1
    2775     2663     2683 1
    2776     2663     2699 1
    2777     2663     2667 1
    2778     2664     2665 1
    2779     2664     2682 1
    2780     2665     2666 1
    2781     2665     2680 1
    2782     2666     2667 1
    2783     2666     2670 1
    2784     2667     2668 1
    2785     2668     2669 1
    2786     2668     2715 1
    2787     2669     2670 1
    2788     2669     2671 1
    2789     2671     2672 1
    2790     2671     2676 1
    2791     2672     2673 1
    2792     2672     2716 1
    2793     2673     2674 1
    2794     2674     2675 1
    2795     2675     2676 1
    2796     2675     2679 1
    2797     2676     2677 1
    2798     2677     2678 1
    2799     2678     2679 1
    2800     2680     2681 1
    2801     2681     2682 1
    2802     2681     2795 1
    2803     2682     2717 1
    2804     2683     2684 1
    2805     2683     2718 1
    2806     2683     2719 1
    2807     2684     2685 1
    2808     2684     2691 1
    2809     2684     2720 1
    2810     2685     2686 1
    2811     2685     2721 1
    2812     2685     2722 1
    2813     2686     2687 1
    2814     2686     2723 1
    2815     2686     2724 1
    2816     2687     2688 1
    2817     2687     2725 1
    2818     2687     2726 1
    2819     2688     2689 1
    2820     2688     2727 1
    2821     2688     2728 1
    2822     2689     2690 1
    2823     2689     2729 1
    2824     2689     2730 1
    2825     2690     2731 1
    2826     2690     2732 1
    2827     2690     2733 1
    2828     2691     2692 1
    2829     2691     2734 1
    2830     2691     2735 1
    2831     2692     2693 1
    2832     2692     2736 1
    2833     2692     2737 1
    2834     2693     2694 1
    2835     2693     2738 1
    2836     2693     2739 1
    2837     2694     2695 1
    2838     2694     2740 1
    2839     2694     2741 1
    2840     2695     2696 1
    2841     2695     2742 1
    2842     2695     2743 1
    2843     2696     2697 1
    2844     2696     2744 1
    2845     2696     2745 1
    2846     2697     2698 1
    2847     2697     2746 1
    2848     2697     2747 1
    2849     2698     2748 1
    2850     2698     2749 1
    2851     2698     2750 1
    2852     2699     2700 1
    2853     2699     2751 1
    2854     2699     2752 1
    2855     2700     2701 1
    2856     2700     2707 1
    2857     2700     2753 1
    2858     2701     2702 1
    2859     2701     2754 1
    2860     2701     2755 1
    2861     2702     2703 1
    2862     2702     2756 1
    2863     2702     2757 1
    2864     2703     2704 1
    2865     2703     2758 1
    2866     2703     2759 1
    2867     2704     2705 1
    2868     2704     2760 1
    2869     2704     2761 1
    2870     2705     2706 1
    2871     2705     2762 1
    2872     2705     2763 1
    2873     2706     2764 1
    2874     2706     2765 1
    2875     2706     2766 1
    2876     2707     2708 1
    2877     2707     2767 1
    2878     2707     2768 1
    2879     2708     2709 1
    2880     2708     2769 1
    2881     2708     2770 1
    2882     2709     2710 1
    2883     2709     2771 1
    2884     2709     2772 1
    2885     2710     2711 1
    2886     2710     2773 1
    2887     2710     2774 1
    2888     2711     2712 1
    2889     2711     2775 1
    2890     2711     2776 1
    2891     2712     2713 1
    2892     2712     2777 1
    2893     2712     2778 1
    2894     2713     2714 1
    2895     2713     2779 1
    2896     2713     2780 1
    2897     2714     2781 1
    2898     2714     2782 1
    2899     2714     2783 1
    2900     2784     2785 1
    2901     2784     2804 1
    2902     2784     2820 1
    2903     2784     2788 1
    2904     2785     2786 1
    2905     2785     2803 1
    2906     2786     2787 1
    2907     2786     2801 1
    2908     2787     2788 1
    2909     2787     2791 1
    2910     2788     2789 1
    2911     2789     2790 1
    2912     2789     2836 1
    2913     2790     2791 1
    2914     2790     2792 1
    2915     2792     2793 1
    2916     2792     2797 1
    2917     2793     2794 1
    2918     2793     2837 1
    2919     2794     2795 1
    2920     2795     2796 1
    2921     2796     2797 1
    2922     2796     2800 1
    2923     2797     2798 1
    2924     2798     2799 1
    2925     2799     2800 1
    2926     2801     2802 1
    2927     2802     2803 1
    2928     2802     2916 1
    2929     2803     2838 1
    2930     2804     2805 1
    2931     2804     2839 1
    2932     2804     2840 1
    2933     2805     2806 1
    2934     2805     2812 1
    2935     2805     2841 1
    2936     2806     2807 1
    2937     2806     2842 1
    2938     2806     2843 1
    2939     2807     2808 1
    2940     2807     2844 1
    2941     2807     2845 1
    2942     2808     2809 1
    2943     2808     2846 1
    2944     2808     2847 1
    2945     2809     2810 1
    2946     2809     2848 1
    2947     2809     2849 1
    2948     2810     2811 1
    2949     2810     2850 1
    2950     2810     2851 1
    2951     2811     2852 1
    2952     2811     2853 1
    2953     2811     2854 1
    2954     2812     2813 1
    2955     2812     2855 1
    2956     2812     2856 1
    2957     2813     2814 1
    2958     2813     2857 1
    2959     2813     2858 1
    2960     2814     2815 1
    2961     2814     2859 1
    2962     2814     2860 1
    2963     2815     2816 1
    2964     2815     2861 1
    2965     2815     2862 1
    2966     2816     2817 1
    2967     2816     2863 1
    2968     2816     2864 1
    2969     2817     2818 1
    2970     2817     2865 1
    2971     2817     2866 1
    2972     2818     2819 1
    2973     2818     2867 1
    2974     2818     2868 1
    2975     2819     2869 1
    2976     2819     2870 1
    2977     2819     2871 1
    2978     2820     2821 1
    2979     2820     2872 1
    2980     2820     2873 1
    2981     2821     2822 1
    2982     2821     2828 1
    2983     2821     2874 1
    2984     2822     2823 1
    2985     2822     2875 1
    2986     2822     2876 1
    2987     2823     2824 1
    2988     2823     2877 1
    2989     2823     2878 1
    2990     2824     2825 1
    2991     2824     2879 1
    2992     2824     2880 1
    2993     2825     2826 1
    2994     2825     2881 1
    2995     2825     2882 1
    2996     2826     2827 1
    2997     2826     2883 1
    2998     2826     2884 1
    2999     2827     2885 1
    3000     2827     2886 1
    3001     2827     2887 1
    3002     2828     2829 1
    3003     2828     2888 1
    3004     2828     2889 1
    3005     2829     2830 1
    3006     2829     2890 1
    3007     2829     2891 1
    3008     2830     2831 1
    3009     2830     2892 1
    3010     2830     2893 1
    3011     2831     2832 1
    3012     2831     2894 1
    3013     2831     2895 1
    3014     2832     2833 1
    3015     2832     2896 1
    3016     2832     2897 1
    3017     2833     2834 1
    3018     2833     2898 1
    3019     2833     2899 1
    3020     2834     2835 1
    3021     2834     2900 1
    3022     2834     2901 1
    3023     2835     2902 1
    3024     2835     2903 1
    3025     2835     2904 1
    3026     2905     2906 1
    3027     2905     2925 1
    3028     2905     2941 1
    3029     2905     2909 1
    3030     2906     2907 1
    3031     2906     2924 1
    3032     2907     2908 1
    3033     2907     2922 1
    3034     2908     2909 1
    3035     2908     2912 1
    3036     2909     2910 1
    3037     2910     2911 1
    3038     2910     2957 1
    3039     2911     2912 1
    3040     2911     2913 1
    3041     2913     2914 1
    3042     2913     2918 1
    3043     2914     2915 1
    3044     2914     2958 1
    3045     2915     2916 1
    3046     2916     2917 1
    3047     2917     2918 1
    3048     2917     2921 1
    3049     2918     2919 1
    3050     2919     2920 1
    3051     2920     2921 1
    3052     2922     2923 1
    3053     2923     2924 1
    3054     2923     3037 1
    3055     2924     2959 1
    3056     2925     2926 1
    3057     2925     2960 1
    3058     2925     2961 1
    3059     2926     2927 1
    3060     2926     2933 1
    3061     2926     2962 1
    3062     2927     2928 1
    3063     2927     2963 1
    3064     2927     2964 1
    3065     2928     2929 1
    3066     2928     2965 1
    3067     2928     2966 1
    3068     2929     2930 1
    3069     2929     2967 1
    3070     2929     2968 1
    3071     2930     2931 1
    3072     2930     2969 1
    3073     2930     2970 1
    3074     2931     2932 1
    3075     2931     2971 1
    3076     2931     2972 1
    3077     2932     2973 1
    3078     2932     2974 1
    3079     2932     2975 1
    3080     2933     2934 1
    3081     2933     2976 1
    3082     2933     2977 1
    3083     2934     2935 1
    3084     2934     2978 1
    3085     2934     2979 1
    3086     2935     2936 1
    3087     2935     2980 1
    3088     2935     2981 1
    3089     2936     2937 1
    3090     2936     2982 1
    3091     2936     2983 1
    3092     2937     2938 1
    3093     2937     2984 1
    3094     2937     2985 1
    3095     2938     2939 1
    3096     2938     2986 1
    3097     2938     2987 1
    3098     2939     2940 1
    3099     2939     2988 1
    3100     2939     2989 1
    3101     2940     2990 1
    3102     2940     2991 1
    3103     2940     2992 1
    3104     2941     2942 1
    3105     2941     2993 1
    3106     2941     2994 1
    3107     2942     2943 1
    3108     2942     2949 1
    3109     2942     2995 1
    3110     2943     2944 1
    3111     2943     2996 1
    3112     2943     2997 1
    3113     2944     2945 1
    3114     2944     2998 1
    3115     2944     2999 1
    3116     2945     2946 1
    3117     2945     3000 1
    3118     2945     3001 1
    3119     2946     2947 1
    3120     2946     3002 1
    3121     2946     3003 1
    3122     2947     2948 1
    3123     2947     3004 1
    3124     2947     3005 1
    3125     2948     3006 1
    3126     2948     3007 1
    3127     2948     3008 1
    3128     2949     2950 1
    3129     2949     3009 1
    3130     2949     3010 1
    3131     2950     2951 1
    3132     2950     3011 1
    3133     2950     3012 1
    3134     2951     2952 1
    3135     2951     3013 1
    3136     2951     3014 1
    3137     2952     2953 1
    3138     2952     3015 1
    3139     2952     3016 1
    3140     2953     2954 1
    3141     2953     3017 1
    3142     2953     3018 1
    3143     2954     2955 1
    3144     2954     3019 1
    3145     2954     3020 1
    3146     2955     2956 1
    3147     2955     3021 1
    3148     2955     3022 1
    3149     2956     3023 1
    3150     2956     3024 1
    3151     2956     3025 1
    3152     3026     3027 1
    3153     3026     3046 1
    3154     3026     3062 1
    3155     3026     3030 1
    3156     3027     3028 1
    3157     3027     3045 1
    3158     3028     3029 1
    3159     3028     3043 1
    3160     3029     3030 1
    3161     3029     3033 1
    3162     3030     3031 1
    3163     3031     3032 1
    3164     3031     3078 1
    3165     3032     3033 1
    3166     3032     3034 1
    3167     3034     3035 1
    3168     3034     3039 1
    3169     3035     3036 1
    3170     3035     3079 1
    3171     3036     3037 1
    3172     3037     3038 1
    3173     3038     3039 1
    3174     3038     3042 1
    3175     3039     3040 1
    3176     3040     3041 1
    3177     3041     3042 1
    3178     3043     3044 1
    3179     3044     3045 1
    3180     3044     3158 1
    3181     3045     3080 1
    3182     3046     3047 1
    3183     3046     3081 1
    3184     3046     3082 1
    3185     3047     3048 1
    3186     3047     3054 1
    3187     3047     3083 1
    3188     3048     3049 1
    3189     3048     3084 1
    3190     3048     3085 1
    3191     3049     3050 1
    3192     3049     3086 1
    3193     3049     3087 1
    3194     3050     3051 1
    3195     3050     3088 1
    3196     3050     3089 1
    3197     3051     3052 1
    3198     3051     3090 1
    3199     3051     3091 1
    3200     3052     3053 1
    3201     3052     3092 1
    3202     3052     3093 1
    3203     3053     3094 1
    3204     3053     3095 1
    3205     3053     3096 1
    3206     3054     3055 1
    3207     3054     3097 1
    3208     3054     3098 1
    3209     3055     3056 1
    3210     3055     3099 1
    3211     3055     3100 1
    3212     3056     3057 1
    3213     3056     3101 1
    3214     3056     3102 1
    3215     3057     3058 1
    3216     3057     3103 1
    3217     3057     3104 1
    3218     3058     3059 1
    3219     3058     3105 1
    3220     3058     3106 1
    3221     3059     3060 1
    3222     3059     3107 1
    3223     3059     3108 1
    3224     3060     3061 1
    3225     3060     3109 1
    3226     3060     3110 1
    3227     3061     3111 1
    3228     3061     3112 1
    3229     3061     3113 1
    3230     3062     3063 1
    3231     3062     3114 1
    3232     3062     3115 1
    3233     3063     3064 1
    3234     3063     3070 1
    3235     3063     3116 1
    3236     3064     3065 1
    3237     3064     3117 1
    3238     3064     3118 1
    3239     3065     3066 1
    3240     3065     3119 1
    3241     3065     3120 1
    3242     3066     3067 1
    3243     3066     3121 1
    3244     3066     3122 1
    3245     3067     3068 1
    3246     3067     3123 1
    3247     3067     3124 1
    3248     3068     3069 1
    3249     3068     3125 1
    3250     3068     3126 1
    3251     3069     3127 1
    3252     3069     3128 1
    3253     3069     3129 1
    3254     3070     3071 1
    3255     3070     3130 1
    3256     3070     3131 1
    3257     3071     3072 1
    3258     3071     3132 1
    3259     3071     3133 1
    3260     3072     3073 1
    3261     3072     3134 1
    3262     3072     3135 1
    3263     3073     3074 1
    3264     3073     3136 1
    3265     3073     3137 1
    3266     3074     3075 1
    3267     3074     3138 1
    3268     3074     3139 1
    3269     3075     3076 1
    3270     3075     3140 1
    3271     3075     3141 1
    3272     3076     3077 1
    3273     3076     3142 1
    3274     3076     3143 1
    3275     3077     3144 1
    3276     3077     3145 1
    3277     3077     3146 1
    3278     3147     3148 1
    3279     3147     3167 1
    3280     3147     3183 1
    3281     3147     3151 1
    3282     3148     3149 1
    3283     3148     3166 1
    3284     3149     3150 1
    3285     3149     3164 1
    3286     3150     3151 1
    3287     3150     3154 1
    3288     3151     3152 1
    3289     3152     3153 1
    3290     3152     3199 1
    3291     3153     3154 1
    3292     3153     3155 1
    3293     3155     3156 1
    3294     3155     3160 1
    3295     3156     3157 1
    3296     3156     3200 1
    3297     3157     3158 1
    3298     3158     3159 1
    3299     3159     3160 1
    3300     3159     3163 1
    3301     3160     3161 1
    3302     3161     3162 1
    3303     3162     3163 1
    3304     3164     3165 1
    3305     3165     3166 1
    3306     3165     3279 1
    3307     3166     3201 1
    3308     3167     3168 1
    3309     3167     3202 1
    3310     3167     3203 1
    3311     3168     3169 1
    3312     3168     3175 1
    3313     3168     3204 1
    3314     3169     3170 1
    3315     3169     3205 1
    3316     3169     3206 1
    3317     3170     3171 1
    3318     3170     3207 1
    3319     3170     3208 1
    3320     3171     3172 1
    3321     3171     3209 1
    3322     3171     3210 1
    3323     3172     3173 1
    3324     3172     3211 1
    3325     3172     3212 1
    3326     3173     3174 1
    3327     3173     3213 1
    3328     3173     3214 1
    3329     3174     3215 1
    3330     3174     3216 1
    3331     3174     3217 1
    3332     3175     3176 1
    3333     3175     3218 1
    3334     3175     3219 1
    3335     3176     3177 1
    3336     3176     3220 1
    3337     3176     3221 1
    3338     3177     3178 1
    3339     3177     3222 1
    3340     3177     3223 1
    3341     3178     3179 1
    3342     3178     3224 1
    3343     3178     3225 1
    3344     3179     3180 1
    3345     3179     3226 1
    3346     3179     3227 1
    3347     3180     3181 1
    3348     3180     3228 1
    3349     3180     3229 1
    3350     3181     3182 1
    3351     3181     3230 1
    3352     3181     3231 1
    3353     3182     3232 1
    3354     3182     3233 1
    3355     3182     3234 1
    3356     3183     3184 1
    3357     3183     3235 1
    3358     3183     3236 1
    3359     3184     3185 1
    3360     3184     3191 1
    3361     3184     3237 1
    3362     3185     3186 1
    3363     3185     3238 1
    3364     3185     3239 1
    3365     3186     3187 1
    3366     3186     3240 1
    3367     3186     3241 1
    3368     3187     3188 1
    3369     3187     3242 1
    3370     3187     3243 1
    3371     3188     3189 1
    3372     3188     3244 1
    3373     3188     3245 1
    3374     3189     3190 1
    3375     3189     3246 1
    3376     3189     3247 1
    3377     3190     3248 1
    3378     3190     3249 1
    3379     3190     3250 1
    3380     3191     3192 1
    3381     3191     3251 1
    3382     3191     3252 1
    3383     3192     3193 1
    3384     3192     3253 1
    3385     3192     3254 1
    3386     3193     3194 1
    3387     3193     3255 1
    3388     3193     3256 1
    3389     3194     3195 1
    3390     3194     3257 1
    3391     3194     3258 1
    3392     3195     3196 1
    3393     3195     3259 1
    3394     3195     3260 1
    3395     3196     3197 1
    3396     3196     3261 1
    3397     3196     3262 1
    3398     3197     3198 1
    3399     3197     3263 1
    3400     3197     3264 1
    3401     3198     3265 1
    3402     3198     3266 1
    3403     3198     3267 1
    3404     3268     3269 1
    3405     3268     3288 1
    3406     3268     3304 1
    3407     3268     3272 1
    3408     3269     3270 1
    3409     3269     3287 1
    3410     3270     3271 1
    3411     3270     3285 1
    3412     3271     3272 1
    3413     3271     3275 1
    3414     3272     3273 1
    3415     3273     3274 1
    3416     3273     3320 1
    3417     3274     3275 1
    3418     3274     3276 1
    3419     3276     3277 1
    3420     3276     3281 1
    3421     3277     3278 1
    3422     3277     3321 1
    3423     3278     3279 1
    3424     3279     3280 1
    3425     3280     3281 1
    3426     3280     3284 1
    3427     3281     3282 1
    3428     3282     3283 1
    3429     3283     3284 1
    3430     3285     3286 1
    3431     3286     3287 1
    3432     3286     3400 1
    3433     3287     3322 1
    3434     3288     3289 1
    3435     3288     3323 1
    3436     3288     3324 1
    3437     3289     3290 1
    3438     3289     3296 1
    3439     3289     3325 1
    3440     3290     3291 1
    3441     3290     3326 1
    3442     3290     3327 1
    3443     3291     3292 1
    3444     3291     3328 1
    3445     3291     3329 1
    3446     3292     3293 1
    3447     3292     3330 1
    3448     3292     3331 1
    3449     3293     3294 1
    3450     3293     3332 1
    3451     3293     3333 1
    3452     3294     3295 1
    3453     3294     3334 1
    3454     3294     3335 1
    3455     3295     3336 1
    3456     3295     3337 1
    3457     3295     3338 1
    3458     3296     3297 1
    3459     3296     3339 1
    3460     3296     3340 1
    3461     3297     3298 1
    3462     3297     3341 1
    3463     3297     3342 1
    3464     3298     3299 1
    3465     3298     3343 1
    3466     3298     3344 1
    3467     3299     3300 1
    3468     3299     3345 1
    3469     3299     3346 1
    3470     3300     3301 1
    3471     3300     3347 1
    3472     3300     3348 1
    3473     3301     3302 1
    3474     3301     3349 1
    3475     3301     3350 1
    3476     3302     3303 1
    3477     3302     3351 1
    3478     3302     3352 1
    3479     3303     3353 1
    3480     3303     3354 1
    3481     3303     3355 1
    3482     3304     3305 1
    3483     3304     3356 1
    3484     3304     3357 1
    3485     3305     3306 1
    3486     3305     3312 1
    3487     3305     3358 1
    3488     3306     3307 1
    3489     3306     3359 1
    3490     3306     3360 1
    3491     3307     3308 1
    3492     3307     3361 1
    3493     3307     3362 1
    3494     3308     3309 1
    3495     3308     3363 1
    3496     3308     3364 1
    3497     3309     3310 1
    3498     3309     3365 1
    3499     3309     3366 1
    3500     3310     3311 1
    3501     3310     3367 1
    3502     3310     3368 1
    3503     3311     3369 1
    3504     3311     3370 1
    3505     3311     3371 1
    3506     3312     3313 1
    3507     3312     3372 1
    3508     3312     3373 1
    3509     3313     3314 1
    3510     3313     3374 1
    3511     3313     3375 1
    3512     3314     3315 1
    3513     3314     3376 1
    3514     3314     3377 1
    3515     3315     3316 1
    3516     3315     3378 1
    3517     3315     3379 1
    3518     3316     3317 1
    3519     3316     3380 1
    3520     3316     3381 1
    3521     3317     3318 1
    3522     3317     3382 1
    3523     3317     3383 1
    3524     3318     3319 1
    3525     3318     3384 1
    3526     3318     3385 1
    3527     3319     3386 1
    3528     3319     3387 1
    3529     3319     3388 1
    3530     3389     3390 1
    3531     3389     3409 1
    3532     3389     3425 1
    3533     3389     3393 1
    3534     3390     3391 1
    3535     3390     3408 1
    3536     3391     3392 1
    3537     3391     3406 1
    3538     3392     3393 1
    3539     3392     3396 1
    3540     3393     3394 1
    3541     3394     3395 1
    3542     3394     3441 1
    3543     3395     3396 1
    3544     3395     3397 1
    3545     3397     3398 1
    3546     3397     3402 1
    3547     3398     3399 1
    3548     3398     3442 1
    3549     3399     3400 1
    3550     3400     3401 1
    3551     3401     3402 1
    3552     3401     3405 1
    3553     3402     3403 1
    3554     3403     3404 1
    3555     3404     3405 1
    3556     3406     3407 1
    3557     3407     3408 1
    3558     3407     3521 1
    3559     3408     3443 1
    3560     3409     3410 1
    3561     3409     3444 1
    3562     3409     3445 1
    3563     3410     3411 1
    3564     3410     3417 1
    3565     3410     3446 1
    3566     3411     3412 1
    3567     3411     3447 1
    3568     3411     3448 1
    3569     3412     3413 1
    3570     3412     3449 1
    3571     3412     3450 1
    3572     3413     3414 1
    3573     3413     3451 1
    3574     3413     3452 1
    3575     3414     3415 1
    3576     3414     3453 1
    3577     3414     3454 1
    3578     3415     3416 1
    3579     3415     3455 1
    3580     3415     3456 1
    3581     3416     3457 1
    3582     3416     3458 1
    3583     3416     3459 1
    3584     3417     3418 1
    3585     3417     3460 1
    3586     3417     3461 1
    3587     3418     3419 1
    3588     3418     3462 1
    3589     3418     3463 1
    3590     3419     3420 1
    3591     3419     3464 1
    3592     3419     3465 1
    3593     3420     3421 1
    3594     3420     3466 1
    3595     3420     3467 1
    3596     3421     3422 1
    3597     3421     3468 1
    3598     3421     3469 1
    3599     3422     3423 1
    3600     3422     3470 1
    3601     3422     3471 1
    3602     3423     3424 1
    3603     3423     3472 1
    3604     3423     3473 1
    3605     3424     3474 1
    3606     3424     3475 1
    3607     3424     3476 1
    3608     3425     3426 1
    3609     3425     3477 1
    3610     3425     3478 1
    3611     3426     3427 1
    3612     3426     3433 1
    3613     3426     3479 1
    3614     3427     3428 1
    3615     3427     3480 1
    3616     3427     3481 1
    3617     3428     3429 1
    3618     3428     3482 1
    3619     3428     3483 1
    3620     3429     3430 1
    3621     3429     3484 1
    3622     3429     3485 1
    3623     3430     3431 1
    3624     3430     3486 1
    3625     3430     3487 1
    3626     3431     3432 1
    3627     3431     3488 1
    3628     3431     3489 1
    3629     3432     3490 1
    3630     3432     3491 1
    3631     3432     3492 1
    3632     3433     3434 1
    3633     3433     3493 1
    3634     3433     3494 1
    3635     3434     3435 1
    3636     3434     3495 1
    3637     3434     3496 1
    3638     3435     3436 1
    3639     3435     3497 1
    3640     3435     3498 1
    3641     3436     3437 1
    3642     3436     3499 1
    3643     3436     3500 1
    3644     3437     3438 1
    3645     3437     3501 1
    3646     3437     3502 1
    3647     3438     3439 1
    3648     3438     3503 1
    3649     3438     3504 1
    3650     3439     3440 1
    3651     3439     3505 1
    3652     3439     3506 1
    3653     3440     3507 1
    3654     3440     3508 1
    3655     3440     3509 1
    3656     3510     3511 1
    3657     3510     3530 1
    3658     3510     3546 1
    3659     3510     3514 1
    3660     3511     3512 1
    3661     3511     3529 1
    3662     3512     3513 1
    3663     3512     3527 1
    3664     3513     3514 1
    3665     3513     3517 1
    3666     3514     3515 1
    3667     3515     3516 1
    3668     3515     3562 1
    3669     3516     3517 1
    3670     3516     3518 1
    3671     3518     3519 1
    3672     3518     3523 1
    3673     3519     3520 1
    3674     3519     3563 1
    3675     3520     3521 1
    3676     3521     3522 1
    3677     3522     3523 1
    3678     3522     3526 1
    3679     3523     3524 1
    3680     3524     3525 1
    3681     3525     3526 1
    3682     3527     3528 1
    3683     3528     3529 1
    3684     3528     3642 1
    3685     3529     3564 1
    3686     3530     3531 1
    3687     3530     3565 1
    3688     3530     3566 1
    3689     3531     3532 1
    3690     3531     3538 1
    3691     3531     3567 1
    3692     3532     3533 1
    3693     3532     3568 1
    3694     3532     3569 1
    3695     3533     3534 1
    3696     3533     3570 1
    3697     3533     3571 1
    3698     3534     3535 1
    3699     3534     3572 1
    3700     3534     3573 1
    3701     3535     3536 1
    3702     3535     3574 1
    3703     3535     3575 1
    3704     3536     3537 1
    3705     3536     3576 1
    3706     3536     3577 1
    3707     3537     3578 1
    3708     3537     3579 1
    3709     3537     3580 1
    3710     3538     3539 1
    3711     3538     3581 1
    3712     3538     3582 1
    3713     3539     3540 1
    3714     3539     3583 1
    3715     3539     3584 1
    3716     3540     3541 1
    3717     3540     3585 1
    3718     3540     3586 1
    3719     3541     3542 1
    3720     3541     3587 1
    3721     3541     3588 1
    3722     3542     3543 1
    3723     3542     3589 1
    3724     3542     3590 1
    3725     3543     3544 1
    3726     3543     3591 1
    3727     3543     3592 1
    3728     3544     3545 1
    3729     3544     3593 1
    3730     3544     3594 1
    3731     3545     3595 1
    3732     3545     3596 1
    3733     3545     3597 1
    3734     3546     3547 1
    3735     3546     3598 1
    3736     3546     3599 1
    3737     3547     3548 1
    3738     3547     3554 1
    3739     3547     3600 1
    3740     3548     3549 1
    3741     3548     3601 1
    3742     3548     3602 1
    3743     3549     3550 1
    3744     3549     3603 1
    3745     3549     3604 1
    3746     3550     3551 1
    3747     3550     3605 1
    3748     3550     3606 1
    3749     3551     3552 1
    3750     3551     3607 1
    3751     3551     3608 1
    3752     3552     3553 1
    3753     3552     3609 1
    3754     3552     3610 1
    3755     3553     3611 1
    3756     3553     3612 1
    3757     3553     3613 1
    3758     3554     3555 1
    3759     3554     3614 1
    3760     3554     3615 1
    3761     3555     3556 1
    3762     3555     3616 1
    3763     3555     3617 1
    3764     3556     3557 1
    3765     3556     3618 1
    3766     3556     3619 1
    3767     3557     3558 1
    3768     3557     3620 1
    3769     3557     3621 1
    3770     3558     3559 1
    3771     3558     3622 1
    3772     3558     3623 1
    3773     3559     3560 1
    3774     3559     3624 1
    3775     3559     3625 1
    3776     3560     3561 1
    3777     3560     3626 1
    3778     3560     3627 1
    3779     3561     3628 1
    3780     3561     3629 1
    3781     3561     3630 1
    3782     3631     3632 1
    3783     3631     3651 1
    3784     3631     3667 1
    3785     3631     3635 1
    3786     3632     3633 1
    3787     3632     3650 1
    3788     3633     3634 1
    3789     3633     3648 1
    3790     3634     3635 1
    3791     3634     3638 1
    3792     3635     3636 1
    3793     3636     3637 1
    3794     3636     3683 1
    3795     3637     3638 1
    3796     3637     3639 1
    3797     3639     3640 1
    3798     3639     3644 1
    3799     3640     3641 1
    3800     3640     3684 1
    3801     3641     3642 1
    3802     3642     3643 1
    3803     3643     3644 1
    3804     3643     3647 1
    3805     3644     3645 1
    3806     3645     3646 1
    3807     3646     3647 1
    3808     3648     3649 1
    3809     3649     3650 1
    3810     3649     3763 1
    3811     3650     3685 1
    3812     3651     3652 1
    3813     3651     3686 1
    3814     3651     3687 1
    3815     3652     3653 1
    3816     3652     3659 1
    3817     3652     3688 1
    3818     3653     3654 1
    3819     3653     3689 1
    3820     3653     3690 1
    3821     3654     3655 1
    3822     3654     3691 1
    3823     3654     3692 1
    3824     3655     3656 1
    3825     3655     3693 1
    3826     3655     3694 1
    3827     3656     3657 1
    3828     3656     3695 1
    3829     3656     3696 1
    3830     3657     3658 1
    3831     3657     3697 1
    3832     3657     3698 1
    3833     3658     3699 1
    3834     3658     3700 1
    3835     3658     3701 1
    3836     3659     3660 1
    3837     3659     3702 1
    3838     3659     3703 1
    3839     3660     3661 1
    3840     3660     3704 1
    3841     3660     3705 1
    3842     3661     3662 1
    3843     3661     3706 1
    3844     3661     3707 1
    3845     3662     3663 1
    3846     3662     3708 1
    3847     3662     3709 1
    3848     3663     3664 1
    3849     3663     3710 1
    3850     3663     3711 1
    3851     3664     3665 1
    3852     3664     3712 1
    3853     3664     3713 1
    3854     3665     3666 1
    3855     3665     3714 1
    3856     3665     3715 1
    3857     3666     3716 1
    3858     3666     3717 1
    3859     3666     3718 1
    3860     3667     3668 1
    3861     3667     3719 1
    3862     3667     3720 1
    3863     3668     3669 1
    3864     3668     3675 1
    3865     3668     3721 1
    3866     3669     3670 1
    3867     3669     3722 1
    3868     3669     3723 1
    3869     3670     3671 1
    3870     3670     3724 1
    3871     3670     3725 1
    3872     3671     3672 1
    3873     3671     3726 1
    3874     3671     3727 1
    3875     3672     3673 1
    3876     3672     3728 1
    3877     3672     3729 1
    3878     3673     3674 1
    3879     3673     3730 1
    3880     3673     3731 1
    3881     3674     3732 1
    3882     3674     3733 1
    3883     3674     3734 1
    3884     3675     3676 1
    3885     3675     3735 1
    3886     3675     3736 1
    3887     3676     3677 1
    3888     3676     3737 1
    3889     3676     3738 1
    3890     3677     3678 1
    3891     3677     3739 1
    3892     3677     3740 1
    3893     3678     3679 1
    3894     3678     3741 1
    3895     3678     3742 1
    3896     3679     3680 1
    3897     3679     3743 1
    3898     3679     3744 1
    3899     3680     3681 1
    3900     3680     3745 1
    3901     3680     3746 1
    3902     3681     3682 1
    3903     3681     3747 1
    3904     3681     3748 1
    3905     3682     3749 1
    3906     3682     3750 1
    3907     3682     3751 1
    3908     3752     3753 1
    3909     3752     3772 1
    3910     3752     3788 1
    3911     3752     3756 1
    3912     3753     3754 1
    3913     3753     3771 1
    3914     3754     3755 1
    3915     3754     3769 1
    3916     3755     3756 1
    3917     3755     3759 1
    3918     3756     3757 1
    3919     3757     3758 1
    3920     3757     3804 1
    3921     3758     3759 1
    3922     3758     3760 1
    3923     3760     3761 1
    3924     3760     3765 1
    3925     3761     3762 1
    3926     3761     3805 1
    3927     3762     3763 1
    3928     3763     3764 1
    3929     3764     3765 1
    3930     3764     3768 1
    3931     3765     3766 1
    3932     3766     3767 1
    3933     3767     3768 1
    3934     3769     3770 1
    3935     3770     3771 1
    3936     3770     3884 1
    3937     3771     3806 1
    3938     3772     3773 1
    3939     3772     3807 1
    3940     3772     3808 1
    3941     3773     3774 1
    3942     3773     3780 1
    3943     3773     3809 1
    3944     3774     3775 1
    3945     3774     3810 1
    3946     3774     3811 1
    3947     3775     3776 1
    3948     3775     3812 1
    3949     3775     3813 1
    3950     3776     3777 1
    3951     3776     3814 1
    3952     3776     3815 1
    3953     3777     3778 1
    3954     3777     3816 1
    3955     3777     3817 1
    3956     3778     3779 1
    3957     3778     3818 1
    3958     3778     3819 1
    3959     3779     3820 1
    3960     3779     3821 1
    3961     3779     3822 1
    3962     3780     3781 1
    3963     3780     3823 1
    3964     3780     3824 1
    3965     3781     3782 1
    3966     3781     3825 1
    3967     3781     3826 1
    3968     3782     3783 1
    3969     3782     3827 1
    3970     3782     3828 1
    3971     3783     3784 1
    3972     3783     3829 1
    3973     3783     3830 1
    3974     3784     3785 1
    3975     3784     3831 1
    3976     3784     3832 1
    3977     3785     3786 1
    3978     3785     3833 1
    3979     3785     3834 1
    3980     3786     3787 1
    3981     3786     3835 1
    3982     3786     3836 1
    3983     3787     3837 1
    3984     3787     3838 1
    3985     3787     3839 1
    3986     3788     3789 1
    3987     3788     3840 1
    3988     3788     3841 1
    3989     3789     3790 1
    3990     3789     3796 1
    3991     3789     3842 1
    3992     3790     3791 1
    3993     3790     3843 1
    3994     3790     3844 1
    3995     3791     3792 1
    3996     3791     3845 1
    3997     3791     3846 1
    3998     3792     3793 1
    3999     3792     3847 1
    4000     3792     3848 1
    4001     3793     3794 1
    4002     3793     3849 1
    4003     3793     3850 1
    4004     3794     3795 1
    4005     3794     3851 1
    4006     3794     3852 1
    4007     3795     3853 1
    4008     3795     3854 1
    4009     3795     3855 1
    4010     3796     3797 1
    4011     3796     3856 1
    4012     3796     3857 1
    4013     3797     3798 1
    4014     3797     3858 1
    4015     3797     3859 1
    4016     3798     3799 1
    4017     3798     3860 1
    4018     3798     3861 1
    4019     3799     3800 1
    4020     3799     3862 1
    4021     3799     3863 1
    4022     3800     3801 1
    4023     3800     3864 1
    4024     3800     3865 1
    4025     3801     3802 1
    4026     3801     3866 1
    4027     3801     3867 1
    4028     3802     3803 1
    4029     3802     3868 1
    4030     3802     3869 1
    4031     3803     3870 1
    4032     3803     3871 1
    4033     3803     3872 1
    4034     3873     3874 1
    4035     3873     3893 1
    4036     3873     3909 1
    4037     3873     3877 1
    4038     3874     3875 1
    4039     3874     3892 1
    4040     3875     3876 1
    4041     3875     3890 1
    4042     3876     3877 1
    4043     3876     3880 1
    4044     3877     3878 1
    4045     3878     3879 1
    4046     3878     3925 1
    4047     3879     3880 1
    4048     3879     3881 1
    4049     3881     3882 1
    4050     3881     3886 1
    4051     3882     3883 1
    4052     3882     3926 1
    4053     3883     3884 1
    4054     3884     3885 1
    4055     3885     3886 1
    4056     3885     3889 1
    4057     3886     3887 1
    4058     3887     3888 1
    4059     3888     3889 1
    4060     3890     3891 1
    4061     3891     3892 1
    4062     3891     4005 1
    4063     3892     3927 1
    4064     3893     3894 1
    4065     3893     3928 1
    4066     3893     3929 1
    4067     3894     3895 1
    4068     3894     3901 1
    4069     3894     3930 1
    4070     3895     3896 1
    4071     3895     3931 1
    4072     3895     3932 1
    4073     3896     3897 1
    4074     3896     3933 1
    4075     3896     3934 1
    4076     3897     3898 1
    4077     3897     3935 1
    4078     3897     3936 1
    4079     3898     3899 1
    4080     3898     3937 1
    4081     3898     3938 1
    4082     3899     3900 1
    4083     3899     3939 1
    4084     3899     3940 1
    4085     3900     3941 1
    4086     3900     3942 1
    4087     3900     3943 1
    4088     3901     3902 1
    4089     3901     3944 1
    4090     3901     3945 1
    4091     3902     3903 1
    4092     3902     3946 1
    4093     3902     3947 1
    4094     3903     3904 1
    4095     3903     3948 1
    4096     3903     3949 1
    4097     3904     3905 1
    4098     3904     3950 1
    4099     3904     3951 1
    4100     3905     3906 1
    4101     3905     3952 1
    4102     3905     3953 1
    4103     3906     3907 1
    4104     3906     3954 1
    4105     3906     3955 1
    4106     3907     3908 1
    4107     3907     3956 1
    4108     3907     3957 1
    4109     3908     3958 1
    4110     3908     3959 1
    4111     3908     3960 1
    4112     3909     3910 1
    4113     3909     3961 1
    4114     3909     3962 1
    4115     3910     3911 1
    4116     3910     3917 1
    4117     3910     3963 1
    4118     3911     3912 1
    4119     3911     3964 1
    4120     3911     3965 1
    4121     3912     3913 1
    4122     3912     3966 1
    4123     3912     3967 1
    4124     3913     3914 1
    4125     3913     3968 1
    4126     3913     3969 1
    4127     3914     3915 1
    4128     3914     3970 1
    4129     3914     3971 1
    4130     3915     3916 1
    4131     3915     3972 1
    4132     3915     3973 1
    4133     3916     3974 1
    4134     3916     3975 1
    4135     3916     3976 1
    4136     3917     3918 1
    4137     3917     3977 1
    4138     3917     3978 1
    4139     3918     3919 1
    4140     3918     3979 1
    4141     3918     3980 1
    4142     3919     3920 1
    4143     3919     3981 1
    4144     3919     3982 1
    4145     3920     3921 1
    4146     3920     3983 1
    4147     3920     3984 1
    4148     3921     3922 1
    4149     3921     3985 1
    4150     3921     3986 1
    4151     3922     3923 1
    4152     3922     3987 1
    4153     3922     3988 1
    4154     3923     3924 1
    4155     3923     3989 1
    4156     3923     3990 1
    4157     3924     3991 1
    4158     3924     3992 1
    4159     3924     3993 1
    4160     3994     3995 1
    4161     3994     4014 1
    4162     3994     4030 1
    4163     3994     3998 1
    4164     3995     3996 1
    4165     3995     4013 1
    4166     3996     3997 1
    4167     3996     4011 1
    4168     3997     3998 1
    4169     3997     4001 1
    4170     3998     3999 1
    4171     3999     4000 1
    4172     3999     4046 1
    4173     4000     4001 1
    4174     4000     4002 1
    4175     4002     4003 1
    4176     4002     4007 1
    4177     4003     4004 1
    4178     4003     4047 1
    4179     4004     4005 1
    4180     4005     4006 1
    4181     4006     4007 1
    4182     4006     4010 1
    4183     4007     4008 1
    4184     4008     4009 1
    4185     4009     4010 1
    4186     4011     4012 1
    4187     4012     4013 1
    4188     4012     4126 1
    4189     4013     4048 1
    4190     4014     4015 1
    4191     4014     4049 1
    4192     4014     4050 1
    4193     4015     4016 1
    4194     4015     4022 1
    4195     4015     4051 1
    4196     4016     4017 1
    4197     4016     4052 1
    4198     4016     4053 1
    4199     4017     4018 1
    4200     4017     4054 1
    4201     4017     4055 1
    4202     4018     4019 1
    4203     4018     4056 1
    4204     4018     4057 1
    4205     4019     4020 1
    4206     4019     4058 1
    4207     4019     4059 1
    4208     4020     4021 1
    4209     4020     4060 1
    4210     4020     4061 1
    4211     4021     4062 1
    4212     4021     4063 1
    4213     4021     4064 1
    4214     4022     4023 1
    4215     4022     4065 1
    4216     4022     4066 1
    4217     4023     4024 1
    4218     4023     4067 1
    4219     4023     4068 1
    4220     4024     4025 1
    4221     4024     4069 1
    4222     4024     4070 1
    4223     4025     4026 1
    4224     4025     4071 1
    4225     4025     4072 1
    4226     4026     4027 1
    4227     4026     4073 1
    4228     4026     4074 1
    4229     4027     4028 1
    4230     4027     4075 1
    4231     4027     4076 1
    4232     4028     4029 1
    4233     4028     4077 1
    4234     4028     4078 1
    4235     4029     4079 1
    4236     4029     4080 1
    4237     4029     4081 1
    4238     4030     4031 1
    4239     4030     4082 1
    4240     4030     4083 1
    4241     4031     4032 1
    4242     4031     4038 1
    4243     4031     4084 1
    4244     4032     4033 1
    4245     4032     4085 1
    4246     4032     4086 1
    4247     4033     4034 1
    4248     4033     4087 1
    4249     4033     4088 1
    4250     4034     4035 1
    4251     4034     4089 1
    4252     4034     4090 1
    4253     4035     4036 1
    4254     4035     4091 1
    4255     4035     4092 1
    4256     4036     4037 1
    4257     4036     4093 1
    4258     4036     4094 1
    4259     4037     4095 1
    4260     4037     4096 1
    4261     4037     4097 1
    4262     4038     4039 1
    4263     4038     4098 1
    4264     4038     4099 1
    4265     4039     4040 1
    4266     4039     4100 1
    4267     4039     4101 1
    4268     4040     4041 1
    4269     4040     4102 1
    4270     4040     4103 1
    4271     4041     4042 1
    4272     4041     4104 1
    4273     4041     4105 1
    4274     4042     4043 1
    4275     4042     4106 1
    4276     4042     4107 1
    4277     4043     4044 1
    4278     4043     4108 1
    4279     4043     4109 1
    4280     4044     4045 1
    4281     4044     4110 1
    4282     4044     4111 1
    4283     4045     4112 1
    4284     4045     4113 1
    4285     4045     4114 1
    4286     4115     4116 1
    4287     4115     4135 1
    4288     4115     4151 1
    4289     4115     4119 1
    4290     4116     4117 1
    4291     4116     4134 1
    4292     4117     4118 1
    4293     4117     4132 1
    4294     4118     4119 1
    4295     4118     4122 1
    4296     4119     4120 1
    4297     4120     4121 1
    4298     4120     4167 1
    4299     4121     4122 1
    4300     4121     4123 1
    4301     4123     4124 1
    4302     4123     4128 1
    4303     4124     4125 1
    4304     4124     4168 1
    4305     4125     4126 1
    4306     4126     4127 1
    4307     4127     4128 1
    4308     4127     4131 1
    4309     4128     4129 1
    4310     4129     4130 1
    4311     4130     4131 1
    4312     4132     4133 1
    4313     4133     4134 1
    4314     4133     4247 1
    4315     4134     4169 1
    4316     4135     4136 1
    4317     4135     4170 1
    4318     4135     4171 1
    4319     4136     4137 1
    4320     4136     4143 1
    4321     4136     4172 1
    4322     4137     4138 1
    4323     4137     4173 1
    4324     4137     4174 1
    4325     4138     4139 1
    4326     4138     4175 1
    4327     4138     4176 1
    4328     4139     4140 1
    4329     4139     4177 1
    4330     4139     4178 1
    4331     4140     4141 1
    4332     4140     4179 1
    4333     4140     4180 1
    4334     4141     4142 1
    4335     4141     4181 1
    4336     4141     4182 1
    4337     4142     4183 1
    4338     4142     4184 1
    4339     4142     4185 1
    4340     4143     4144 1
    4341     4143     4186 1
    4342     4143     4187 1
    4343     4144     4145 1
    4344     4144     4188 1
    4345     4144     4189 1
    4346     4145     4146 1
    4347     4145     4190 1
    4348     4145     4191 1
    4349     4146     4147 1
    4350     4146     4192 1
    4351     4146     4193 1
    4352     4147     4148 1
    4353     4147     4194 1
    4354     4147     4195 1
    4355     4148     4149 1
    4356     4148     4196 1
    4357     4148     4197 1
    4358     4149     4150 1
    4359     4149     4198 1
    4360     4149     4199 1
    4361     4150     4200 1
    4362     4150     4201 1
    4363     4150     4202 1
    4364     4151     4152 1
    4365     4151     4203 1
    4366     4151     4204 1
    4367     4152     4153 1
    4368     4152     4159 1
    4369     4152     4205 1
    4370     4153     4154 1
    4371     4153     4206 1
    4372     4153     4207 1
    4373     4154     4155 1
    4374     4154     4208 1
    4375     4154     4209 1
    4376     4155     4156 1
    4377     4155     4210 1
    4378     4155     4211 1
    4379     4156     4157 1
    4380     4156     4212 1
    4381     4156     4213 1
    4382     4157     4158 1
    4383     4157     4214 1
    4384     4157     4215 1
    4385     4158     4216 1
    4386     4158     4217 1
    4387     4158     4218 1
    4388     4159     4160 1
    4389     4159     4219 1
    4390     4159     4220 1
    4391     4160     4161 1
    4392     4160     4221 1
    4393     4160     4222 1
    4394     4161     4162 1
    4395     4161     4223 1
    4396     4161     4224 1
    4397     4162     4163 1
    4398     4162     4225 1
    4399     4162     4226 1
    4400     4163     4164 1
    4401     4163     4227 1
    4402     4163     4228 1
    4403     4164     4165 1
    4404     4164     4229 1
    4405     4164     4230 1
    4406     4165     4166 1
    4407     4165     4231 1
    4408     4165     4232 1
    4409     4166     4233 1
    4410     4166     4234 1
    4411     4166     4235 1
    4412     4236     4237 1
    4413     4236     4256 1
    4414     4236     4272 1
    4415     4236     4240 1
    4416     4237     4238 1
    4417     4237     4255 1
    4418     4238     4239 1
    4419     4238     4253 1
    4420     4239     4240 1
    4421     4239     4243 1
    4422     4240     4241 1
    4423     4241     4242 1
    4424     4241     4288 1
    4425     4242     4243 1
    4426     4242     4244 1
    4427     4244     4245 1
    4428     4244     4249 1
    4429     4245     4246 1
    4430     4245     4289 1
    4431     4246     4247 1
    4432     4247     4248 1
    4433     4248     4249 1
    4434     4248     4252 1
    4435     4249     4250 1
    4436     4250     4251 1
    4437     4251     4252 1
    4438     4253     4254 1
    4439     4254     4255 1
    4440     4254     4368 1
    4441     4255     4290 1
    4442     4256     4257 1
    4443     4256     4291 1
    4444     4256     4292 1
    4445     4257     4258 1
    4446     4257     4264 1
    4447     4257     4293 1
    4448     4258     4259 1
    4449     4258     4294 1
    4450     4258     4295 1
    4451     4259     4260 1
    4452     4259     4296 1
    4453     4259     4297 1
    4454     4260     4261 1
    4455     4260     4298 1
    4456     4260     4299 1
    4457     4261     4262 1
    4458     4261     4300 1
    4459     4261     4301 1
    4460     4262     4263 1
    4461     4262     4302 1
    4462     4262     4303 1
    4463     4263     4304 1
    4464     4263     4305 1
    4465     4263     4306 1
    4466     4264     4265 1
    4467     4264     4307 1
    4468     4264     4308 1
    4469     4265     4266 1
    4470     4265     4309 1
    4471     4265     4310 1
    4472     4266     4267 1
    4473     4266     4311 1
    4474     4266     4312 1
    4475     4267     4268 1
    4476     4267     4313 1
    4477     4267     4314 1
    4478     4268     4269 1
    4479     4268     4315 1
    4480     4268     4316 1
    4481     4269     4270 1
    4482     4269     4317 1
    4483     4269     4318 1
    4484     4270     4271 1
    4485     4270     4319 1
    4486     4270     4320 1
    4487     4271     4321 1
    4488     4271     4322 1
    4489     4271     4323 1
    4490     4272     4273 1
    4491     4272     4324 1
    4492     4272     4325 1
    4493     4273     4274 1
    4494     4273     4280 1
    4495     4273     4326 1
    4496     4274     4275 1
    4497     4274     4327 1
    4498     4274     4328 1
    4499     4275     4276 1
    4500     4275     4329 1
    4501     4275     4330 1
    4502     4276     4277 1
    4503     4276     4331 1
    4504     4276     4332 1
    4505     4277     4278 1
    4506     4277     4333 1
    4507     4277     4334 1
    4508     4278     4279 1
    4509     4278     4335 1
    4510     4278     4336 1
    4511     4279     4337 1
    4512     4279     4338 1
    4513     4279     4339 1
    4514     4280     4281 1
    4515     4280     4340 1
    4516     4280     4341 1
    4517     4281     4282 1
    4518     4281     4342 1
    4519     4281     4343 1
    4520     4282     4283 1
    4521     4282     4344 1
    4522     4282     4345 1
    4523     4283     4284 1
    4524     4283     4346 1
    4525     4283     4347 1
    4526     4284     4285 1
    4527     4284     4348 1
    4528     4284     4349 1
    4529     4285     4286 1
    4530     4285     4350 1
    4531     4285     4351 1
    4532     4286     4287 1
    4533     4286     4352 1
    4534     4286     4353 1
    4535     4287     4354 1
    4536     4287     4355 1
    4537     4287     4356 1
    4538     4357     4358 1
    4539     4357     4377 1
    4540     4357     4393 1
    4541     4357     4361 1
    4542     4358     4359 1
    4543     4358     4376 1
    4544     4359     4360 1
    4545     4359     4374 1
    4546     4360     4361 1
    4547     4360     4364 1
    4548     4361     4362 1
    4549     4362     4363 1
    4550     4362     4409 1
    4551     4363     4364 1
    4552     4363     4365 1
    4553     4365     4366 1
    4554     4365     4370 1
    4555     4366     4367 1
    4556     4366     4410 1
    4557     4367     4368 1
    4558     4368     4369 1
    4559     4369     4370 1
    4560     4369     4373 1
    4561     4370     4371 1
    4562     4371     4372 1
    4563     4372     4373 1
    4564     4374     4375 1
    4565     4375     4376 1
    4566     4375     4489 1
    4567     4376     4411 1
    4568     4377     4378 1
    4569     4377     4412 1
    4570     4377     4413 1
    4571     4378     4379 1
    4572     4378     4385 1
    4573     4378     4414 1
    4574     4379     4380 1
    4575     4379     4415 1
    4576     4379     4416 1
    4577     4380     4381 1
    4578     4380     4417 1
    4579     4380     4418 1
    4580     4381     4382 1
    4581     4381     4419 1
    4582     4381     4420 1
    4583     4382     4383 1
    4584     4382     4421 1
    4585     4382     4422 1
    4586     4383     4384 1
    4587     4383     4423 1
    4588     4383     4424 1
    4589     4384     4425 1
    4590     4384     4426 1
    4591     4384     4427 1
    4592     4385     4386 1
    4593     4385     4428 1
    4594     4385     4429 1
    4595     4386     4387 1
    4596     4386     4430 1
    4597     4386     4431 1
    4598     4387     4388 1
    4599     4387     4432 1
    4600     4387     4433 1
    4601     4388     4389 1
    4602     4388     4434 1
    4603     4388     4435 1
    4604     4389     4390 1
    4605     4389     4436 1
    4606     4389     4437 1
    4607     4390     4391 1
    4608     4390     4438 1
    4609     4390     4439 1
    4610     4391     4392 1
    4611     4391     4440 1
    4612     4391     4441 1
    4613     4392     4442 1
    4614     4392     4443 1
    4615     4392     4444 1
    4616     4393     4394 1
    4617     4393     4445 1
    4618     4393     4446 1
    4619     4394     4395 1
    4620     4394     4401 1
    4621     4394     4447 1
    4622     4395     4396 1
    4623     4395     4448 1
    4624     4395     4449 1
    4625     4396     4397 1
    4626     4396     4450 1
    4627     4396     4451 1
    4628     4397     4398 1
    4629     4397     4452 1
    4630     4397     4453 1
    4631     4398     4399 1
    4632     4398     4454 1
    4633     4398     4455 1
    4634     4399     4400 1
    4635     4399     4456 1
    4636     4399     4457 1
    4637     4400     4458 1
    4638     4400     4459 1
    4639     4400     4460 1
    4640     4401     4402 1
    4641     4401     4461 1
    4642     4401     4462 1
    4643     4402     4403 1
    4644     4402     4463 1
    4645     4402     4464 1
    4646     4403     4404 1
    4647     4403     4465 1
    4648     4403     4466 1
    4649     4404     4405 1
    4650     4404     4467 1
    4651     4404     4468 1
    4652     4405     4406 1
    4653     4405     4469 1
    4654     4405     4470 1
    4655     4406     4407 1
    4656     4406     4471 1
    4657     4406     4472 1
    4658     4407     4408 1
    4659     4407     4473 1
    4660     4407     4474 1
    4661     4408     4475 1
    4662     4408     4476 1
    4663     4408     4477 1
    4664     4478     4479 1
    4665     4478     4498 1
    4666     4478     4514 1
    4667     4478     4482 1
    4668     4479     4480 1
    4669     4479     4497 1
    4670     4480     4481 1
    4671     4480     4495 1
    4672     4481     4482 1
    4673     4481     4485 1
    4674     4482     4483 1
    4675     4483     4484 1
    4676     4483     4530 1
    4677     4484     4485 1
    4678     4484     4486 1
    4679     4486     4487 1
    4680     4486     4491 1
    4681     4487     4488 1
    4682     4487     4531 1
    4683     4488     4489 1
    4684     4489     4490 1
    4685     4490     4491 1
    4686     4490     4494 1
    4687     4491     4492 1
    4688     4492     4493 1
    4689     4493     4494 1
    4690     4495     4496 1
    4691     4496     4497 1
    4692     4496     4610 1
    4693     4497     4532 1
    4694     4498     4499 1
    4695     4498     4533 1
    4696     4498     4534 1
    4697     4499     4500 1
    4698     4499     4506 1
    4699     4499     4535 1
    4700     4500     4501 1
    4701     4500     4536 1
    4702     4500     4537 1
    4703     4501     4502 1
    4704     4501     4538 1
    4705     4501     4539 1
    4706     4502     4503 1
    4707     4502     4540 1
    4708     4502     4541 1
    4709     4503     4504 1
    4710     4503     4542 1
    4711     4503     4543 1
    4712     4504     4505 1
    4713     4504     4544 1
    4714     4504     4545 1
    4715     4505     4546 1
    4716     4505     4547 1
    4717     4505     4548 1
    4718     4506     4507 1
    4719     4506     4549 1
    4720     4506     4550 1
    4721     4507     4508 1
    4722     4507     4551 1
    4723     4507     4552 1
    4724     4508     4509 1
    4725     4508     4553 1
    4726     4508     4554 1
    4727     4509     4510 1
    4728     4509     4555 1
    4729     4509     4556 1
    4730     4510     4511 1
    4731     4510     4557 1
    4732     4510     4558 1
    4733     4511     4512 1
    4734     4511     4559 1
    4735     4511     4560 1
    4736     4512     4513 1
    4737     4512     4561 1
    4738     4512     4562 1
    4739     4513     4563 1
    4740     4513     4564 1
    4741     4513     4565 1
    4742     4514     4515 1
    4743     4514     4566 1
    4744     4514     4567 1
    4745     4515     4516 1
    4746     4515     4522 1
    4747     4515     4568 1
    4748     4516     4517 1
    4749     4516     4569 1
    4750     4516     4570 1
    4751     4517     4518 1
    4752     4517     4571 1
    4753     4517     4572 1
    4754     4518     4519 1
    4755     4518     4573 1
    4756     4518     4574 1
    4757     4519     4520 1
    4758     4519     4575 1
    4759     4519     4576 1
    4760     4520     4521 1
    4761     4520     4577 1
    4762     4520     4578 1
    4763     4521     4579 1
    4764     4521     4580 1
    4765     4521     4581 1
    4766     4522     4523 1
    4767     4522     4582 1
    4768     4522     4583 1
    4769     4523     4524 1
    4770     4523     4584 1
    4771     4523     4585 1
    4772     4524     4525 1
    4773     4524     4586 1
    4774     4524     4587 1
    4775     4525     4526 1
    4776     4525     4588 1
    4777     4525     4589 1
    4778     4526     4527 1
    4779     4526     4590 1
    4780     4526     4591 1
    4781     4527     4528 1
    4782     4527     4592 1
    4783     4527     4593 1
    4784     4528     4529 1
    4785     4528     4594 1
    4786     4528     4595 1
    4787     4529     4596 1
    4788     4529     4597 1
    4789     4529     4598 1
    4790     4599     4600 1
    4791     4599     4619 1
    4792     4599     4635 1
    4793     4599     4603 1
    4794     4600     4601 1
    4795     4600     4618 1
    4796     4601     4602 1
    4797     4601     4616 1
    4798     4602     4603 1
    4799     4602     4606 1
    4800     4603     4604 1
    4801     4604     4605 1
    4802     4604     4651 1
    4803     4605     4606 1
    4804     4605     4607 1
    4805     4607     4608 1
    4806     4607     4612 1
    4807     4608     4609 1
    4808     4608     4652 1
    4809     4609     4610 1
    4810     4610     4611 1
    4811     4611     4612 1
    4812     4611     4615 1
    4813     4612     4613 1
    4814     4613     4614 1
    4815     4614     4615 1
    4816     4616     4617 1
    4817     4617     4618 1
    4818     4617     4731 1
    4819     4618     4653 1
    4820     4619     4620 1
    4821     4619     4654 1
    4822     4619     4655 1
    4823     4620     4621 1
    4824     4620     4627 1
    4825     4620     4656 1
    4826     4621     4622 1
    4827     4621     4657 1
    4828     4621     4658 1
    4829     4622     4623 1
    4830     4622     4659 1
    4831     4622     4660 1
    4832     4623     4624 1
    4833     4623     4661 1
    4834     4623     4662 1
    4835     4624     4625 1
    4836     4624     4663 1
    4837     4624     4664 1
    4838     4625     4626 1
    4839     4625     4665 1
    4840     4625     4666 1
    4841     4626     4667 1
    4842     4626     4668 1
    4843     4626     4669 1
    4844     4627     4628 1
    4845     4627     4670 1
    4846     4627     4671 1
    4847     4628     4629 1
    4848     4628     4672 1
    4849     4628     4673 1
    4850     4629     4630 1
    4851     4629     4674 1
    4852     4629     4675 1
    4853     4630     4631 1
    4854     4630     4676 1
    4855     4630     4677 1
    4856     4631     4632 1
    4857     4631     4678 1
    4858     4631     4679 1
    4859     4632     4633 1
    4860     4632     4680 1
    4861     4632     4681 1
    4862     4633     4634 1
    4863     4633     4682 1
    4864     4633     4683 1
    4865     4634     4684 1
    4866     4634     4685 1
    4867     4634     4686 1
    4868     4635     4636 1
    4869     4635     4687 1
    4870     4635     4688 1
    4871     4636     4637 1
    4872     4636     4643 1
    4873     4636     4689 1
    4874     4637     4638 1
    4875     4637     4690 1
    4876     4637     4691 1
    4877     4638     4639 1
    4878     4638     4692 1
    4879     4638     4693 1
    4880     4639     4640 1
    4881     4639     4694 1
    4882     4639     4695 1
    4883     4640     4641 1
    4884     4640     4696 1
    4885     4640     4697 1
    4886     4641     4642 1
    4887     4641     4698 1
    4888     4641     4699 1
    4889     4642     4700 1
    4890     4642     4701 1
    4891     4642     4702 1
    4892     4643     4644 1
    4893     4643     4703 1
    4894     4643     4704 1
    4895     4644     4645 1
    4896     4644     4705 1
    4897     4644     4706 1
    4898     4645     4646 1
    4899     4645     4707 1
    4900     4645     4708 1
    4901     4646     4647 1
    4902     4646     4709 1
    4903     4646     4710 1
    4904     4647     4648 1
    4905     4647     4711 1
    4906     4647     4712 1
    4907     4648     4649 1
    4908     4648     4713 1
    4909     4648     4714 1
    4910     4649     4650 1
    4911     4649     4715 1
    4912     4649     4716 1
    4913     4650     4717 1
    4914     4650     4718 1
    4915     4650     4719 1
    4916     4720     4721 1
    4917     4720     4740 1
    4918     4720     4756 1
    4919     4720     4724 1
    4920     4721     4722 1
    4921     4721     4739 1
    4922     4722     4723 1
    4923     4722     4737 1
    4924     4723     4724 1
    4925     4723     4727 1
    4926     4724     4725 1
    4927     4725     4726 1
    4928     4725     4772 1
    4929     4726     4727 1
    4930     4726     4728 1
    4931     4728     4729 1
    4932     4728     4733 1
    4933     4729     4730 1
    4934     4729     4773 1
    4935     4730     4731 1
    4936     4731     4732 1
    4937     4732     4733 1
    4938     4732     4736 1
    4939     4733     4734 1
    4940     4734     4735 1
    4941     4735     4736 1
    4942     4737     4738 1
    4943     4738     4739 1
    4944     4738     4852 1
    4945     4739     4774 1
    4946     4740     4741 1
    4947     4740     4775 1
    4948     4740     4776 1
    4949     4741     4742 1
    4950     4741     4748 1
    4951     4741     4777 1
    4952     4742     4743 1
    4953     4742     4778 1
    4954     4742     4779 1
    4955     4743     4744 1
    4956     4743     4780 1
    4957     4743     4781 1
    4958     4744     4745 1
    4959     4744     4782 1
    4960     4744     4783 1
    4961     4745     4746 1
    4962     4745     4784 1
    4963     4745     4785 1
    4964     4746     4747 1
    4965     4746     4786 1
    4966     4746     4787 1
    4967     4747     4788 1
    4968     4747     4789 1
    4969     4747     4790 1
    4970     4748     4749 1
    4971     4748     4791 1
    4972     4748     4792 1
    4973     4749     4750 1
    4974     4749     4793 1
    4975     4749     4794 1
    4976     4750     4751 1
    4977     4750     4795 1
    4978     4750     4796 1
    4979     4751     4752 1
    4980     4751     4797 1
    4981     4751     4798 1
    4982     4752     4753 1
    4983     4752     4799 1
    4984     4752     4800 1
    4985     4753     4754 1
    4986     4753     4801 1
    4987     4753     4802 1
    4988     4754     4755 1
    4989     4754     4803 1
    4990     4754     4804 1
    4991     4755     4805 1
    4992     4755     4806 1
    4993     4755     4807 1
    4994     4756     4757 1
    4995     4756     4808 1
    4996     4756     4809 1
    4997     4757     4758 1
    4998     4757     4764 1
    4999     4757     4810 1
    5000     4758     4759 1
    5001     4758     4811 1
    5002     4758     4812 1
    5003     4759     4760 1
    5004     4759     4813 1
    5005     4759     4814 1
    5006     4760     4761 1
    5007     4760     4815 1
    5008     4760     4816 1
    5009     4761     4762 1
    5010     4761     4817 1
    5011     4761     4818 1
    5012     4762     4763 1
    5013     4762     4819 1
    5014     4762     4820 1
    5015     4763     4821 1
    5016     4763     4822 1
    5017     4763     4823 1
    5018     4764     4765 1
    5019     4764     4824 1
    5020     4764     4825 1
    5021     4765     4766 1
    5022     4765     4826 1
    5023     4765     4827 1
    5024     4766     4767 1
    5025     4766     4828 1
    5026     4766     4829 1
    5027     4767     4768 1
    5028     4767     4830 1
    5029     4767     4831 1
    5030     4768     4769 1
    5031     4768     4832 1
    5032     4768     4833 1
    5033     4769     4770 1
    5034     4769     4834 1
    5035     4769     4835 1
    5036     4770     4771 1
    5037     4770     4836 1
    5038     4770     4837 1
    5039     4771     4838 1
    5040     4771     4839 1
    5041     4771     4840 1
    5042     4841     4842 1
    5043     4841     4861 1
    5044     4841     4877 1
    5045     4841     4845 1
    5046     4842     4843 1
    5047     4842     4860 1
    5048     4843     4844 1
    5049     4843     4858 1
    5050     4844     4845 1
    5051     4844     4848 1
    5052     4845     4846 1
    5053     4846     4847 1
    5054     4846     4893 1
    5055     4847     4848 1
    5056     4847     4849 1
    5057     4849     4850 1
    5058     4849     4854 1
    5059     4850     4851 1
    5060     4850     4894 1
    5061     4851     4852 1
    5062     4852     4853 1
    5063     4853     4854 1
    5064     4853     4857 1
    5065     4854     4855 1
    5066     4855     4856 1
    5067     4856     4857 1
    5068     4858     4859 1
    5069     4859     4860 1
    5070     4859     4973 1
    5071     4860     4895 1
    5072     4861     4862 1
    5073     4861     4896 1
    5074     4861     4897 1
    5075     4862     4863 1
    5076     4862     4869 1
    5077     4862     4898 1
    5078     4863     4864 1
    5079     4863     4899 1
    5080     4863     4900 1
    5081     4864     4865 1
    5082     4864     4901 1
    5083     4864     4902 1
    5084     4865     4866 1
    5085     4865     4903 1
    5086     4865     4904 1
    5087     4866     4867 1
    5088     4866     4905 1
    5089     4866     4906 1
    5090     4867     4868 1
    5091     4867     4907 1
    5092     4867     4908 1
    5093     4868     4909 1
    5094     4868     4910 1
    5095     4868     4911 1
    5096     4869     4870 1
    5097     4869     4912 1
    5098     4869     4913 1
    5099     4870     4871 1
    5100     4870     4914 1
    5101     4870     4915 1
    5102     4871     4872 1
    5103     4871     4916 1
    5104     4871     4917 1
    5105     4872     4873 1
    5106     4872     4918 1
    5107     4872     4919 1
    5108     4873     4874 1
    5109     4873     4920 1
    5110     4873     4921 1
    5111     4874     4875 1
    5112     4874     4922 1
    5113     4874     4923 1
    5114     4875     4876 1
    5115     4875     4924 1
    5116     4875     4925 1
    5117     4876     4926 1
    5118     4876     4927 1
    5119     4876     4928 1
    5120     4877     4878 1
    5121     4877     4929 1
    5122     4877     4930 1
    5123     4878     4879 1
    5124     4878     4885 1
    5125     4878     4931 1
    5126     4879     4880 1
    5127     4879     4932 1
    5128     4879     4933 1
    5129     4880     4881 1
    5130     4880     4934 1
    5131     4880     4935 1
    5132     4881     4882 1
    5133     4881     4936 1
    5134     4881     4937 1
    5135     4882     4883 1
    5136     4882     4938 1
    5137     4882     4939 1
    5138     4883     4884 1
    5139     4883     4940 1
    5140     4883     4941 1
    5141     4884     4942 1
    5142     4884     4943 1
    5143     4884     4944 1
    5144     4885     4886 1
    5145     4885     4945 1
    5146     4885     4946 1
    5147     4886     4887 1
    5148     4886     4947 1
    5149     4886     4948 1
    5150     4887     4888 1
    5151     4887     4949 1
    5152     4887     4950 1
    5153     4888     4889 1
    5154     4888     4951 1
    5155     4888     4952 1
    5156     4889     4890 1
    5157     4889     4953 1
    5158     4889     4954 1
    5159     4890     4891 1
    5160     4890     4955 1
    5161     4890     4956 1
    5162     4891     4892 1
    5163     4891     4957 1
    5164     4891     4958 1
    5165     4892     4959 1
    5166     4892     4960 1
    5167     4892     4961 1
    5168     4962     4963 1
    5169     4962     4982 1
    5170     4962     4998 1
    5171     4962     4966 1
    5172     4963     4964 1
    5173     4963     4981 1
    5174     4964     4965 1
    5175     4964     4979 1
    5176     4965     4966 1
    5177     4965     4969 1
    5178     4966     4967 1
    5179     4967     4968 1
    5180     4967     5014 1
    5181     4968     4969 1
    5182     4968     4970 1
    5183     4970     4971 1
    5184     4970     4975 1
    5185     4971     4972 1
    5186     4971     5015 1
    5187     4972     4973 1
    5188     4973     4974 1
    5189     4974     4975 1
    5190     4974     4978 1
    5191     4975     4976 1
    5192     4976     4977 1
    5193     4977     4978 1
    5194     4979     4980 1
    5195     4980     4981 1
    5196     4980     5094 1
    5197     4981     5016 1
    5198     4982     4983 1
    5199     4982     5017 1
    5200     4982     5018 1
    5201     4983     4984 1
    5202     4983     4990 1
    5203     4983     5019 1
    5204     4984     4985 1
    5205     4984     5020 1
    5206     4984     5021 1
    5207     4985     4986 1
    5208     4985     5022 1
    5209     4985     5023 1
    5210     4986     4987 1
    5211     4986     5024 1
    5212     4986     5025 1
    5213     4987     4988 1
    5214     4987     5026 1
    5215     4987     5027 1
    5216     4988     4989 1
    5217     4988     5028 1
    5218     4988     5029 1
    5219     4989     5030 1
    5220     4989     5031 1
    5221     4989     5032 1
    5222     4990     4991 1
    5223     4990     5033 1
    5224     4990     5034 1
    5225     4991     4992 1
    5226     4991     5035 1
    5227     4991     5036 1
    5228     4992     4993 1
    5229     4992     5037 1
    5230     4992     5038 1
    5231     4993     4994 1
    5232     4993     5039 1
    5233     4993     5040 1
    5234     4994     4995 1
    5235     4994     5041 1
    5236     4994     5042 1
    5237     4995     4996 1
    5238     4995     5043 1
    5239     4995     5044 1
    5240     4996     4997 1
    5241     4996     5045 1
    5242     4996     5046 1
    5243     4997     5047 1
    5244     4997     5048 1
    5245     4997     5049 1
    5246     4998     4999 1
    5247     4998     5050 1
    5248     4998     5051 1
    5249     4999     5000 1
    5250     4999     5006 1
    5251     4999     5052 1
    5252     5000     5001 1
    5253     5000     5053 1
    5254     5000     5054 1
    5255     5001     5002 1
    5256     5001     5055 1
    5257     5001     5056 1
    5258     5002     5003 1
    5259     5002     5057 1
    5260     5002     5058 1
    5261     5003     5004 1
    5262     5003     5059 1
    5263     5003     5060 1
    5264     5004     5005 1
    5265     5004     5061 1
    5266     5004     5062 1
    5267     5005     5063 1
    5268     5005     5064 1
    5269     5005     5065 1
    5270     5006     5007 1
    5271     5006     5066 1
    5272     5006     5067 1
    5273     5007     5008 1
    5274     5007     5068 1
    5275     5007     5069 1
    5276     5008     5009 1
    5277     5008     5070 1
    5278     5008     5071 1
    5279     5009     5010 1
    5280     5009     5072 1
    5281     5009     5073 1
    5282     5010     5011 1
    5283     5010     5074 1
    5284     5010     5075 1
    5285     5011     5012 1
    5286     5011     5076 1
    5287     5011     5077 1
    5288     5012     5013 1
    5289     5012     5078 1
    5290     5012     5079 1
    5291     5013     5080 1
    5292     5013     5081 1
    5293     5013     5082 1
    5294     5083     5084 1
    5295     5083     5103 1
    5296     5083     5119 1
    5297     5083     5087 1
    5298     5084     5085 1
    5299     5084     5102 1
    5300     5085     5086 1
    5301     5085     5100 1
    5302     5086     5087 1
    5303     5086     5090 1
    5304     5087     5088 1
    5305     5088     5089 1
    5306     5088     5135 1
    5307     5089     5090 1
    5308     5089     5091 1
    5309     5091     5092 1
    5310     5091     5096 1
    5311     5092     5093 1
    5312     5092     5136 1
    5313     5093     5094 1
    5314     5094     5095 1
    5315     5095     5096 1
    5316     5095     5099 1
    5317     5096     5097 1
    5318     5097     5098 1
    5319     5098     5099 1
    5320     5100     5101 1
    5321     5101     5102 1
    5322     5101     5215 1
    5323     5102     5137 1
    5324     5103     5104 1
    5325     5103     5138 1
    5326     5103     5139 1
    5327     5104     5105 1
    5328     5104     5111 1
    5329     5104     5140 1
    5330     5105     5106 1
    5331     5105     5141 1
    5332     5105     5142 1
    5333     5106     5107 1
    5334     5106     5143 1
    5335     5106     5144 1
    5336     5107     5108 1
    5337     5107     5145 1
    5338     5107     5146 1
    5339     5108     5109 1
    5340     5108     5147 1
    5341     5108     5148 1
    5342     5109     5110 1
    5343     5109     5149 1
    5344     5109     5150 1
    5345     5110     5151 1
    5346     5110     5152 1
    5347     5110     5153 1
    5348     5111     5112 1
    5349     5111     5154 1
    5350     5111     5155 1
    5351     5112     5113 1
    5352     5112     5156 1
    5353     5112     5157 1
    5354     5113     5114 1
    5355     5113     5158 1
    5356     5113     5159 1
    5357     5114     5115 1
    5358     5114     5160 1
    5359     5114     5161 1
    5360     5115     5116 1
    5361     5115     5162 1
    5362     5115     5163 1
    5363     5116     5117 1
    5364     5116     5164 1
    5365     5116     5165 1
    5366     5117     5118 1
    5367     5117     5166 1
    5368     5117     5167 1
    5369     5118     5168 1
    5370     5118     5169 1
    5371     5118     5170 1
    5372     5119     5120 1
    5373     5119     5171 1
    5374     5119     5172 1
    5375     5120     5121 1
    5376     5120     5127 1
    5377     5120     5173 1
    5378     5121     5122 1
    5379     5121     5174 1
    5380     5121     5175 1
    5381     5122     5123 1
    5382     5122     5176 1
    5383     5122     5177 1
    5384     5123     5124 1
    5385     5123     5178 1
    5386     5123     5179 1
    5387     5124     5125 1
    5388     5124     5180 1
    5389     5124     5181 1
    5390     5125     5126 1
    5391     5125     5182 1
    5392     5125     5183 1
    5393     5126     5184 1
    5394     5126     5185 1
    5395     5126     5186 1
    5396     5127     5128 1
    5397     5127     5187 1
    5398     5127     5188 1
    5399     5128     5129 1
    5400     5128     5189 1
    5401     5128     5190 1
    5402     5129     5130 1
    5403     5129     5191 1
    5404     5129     5192 1
    5405     5130     5131 1
    5406     5130     5193 1
    5407     5130     5194 1
    5408     5131     5132 1
    5409     5131     5195 1
    5410     5131     5196 1
    5411     5132     5133 1
    5412     5132     5197 1
    5413     5132     5198 1
    5414     5133     5134 1
    5415     5133     5199 1
    5416     5133     5200 1
    5417     5134     5201 1
    5418     5134     5202 1
    5419     5134     5203 1
    5420     5204     5205 1
    5421     5204     5224 1
    5422     5204     5240 1
    5423     5204     5208 1
    5424     5205     5206 1
    5425     5205     5223 1
    5426     5206     5207 1
    5427     5206     5221 1
    5428     5207     5208 1
    5429     5207     5211 1
    5430     5208     5209 1
    5431     5209     5210 1
    5432     5209     5256 1
    5433     5210     5211 1
    5434     5210     5212 1
    5435     5212     5213 1
    5436     5212     5217 1
    5437     5213     5214 1
    5438     5213     5257 1
    5439     5214     5215 1
    5440     5215     5216 1
    5441     5216     5217 1
    5442     5216     5220 1
    5443     5217     5218 1
    5444     5218     5219 1
    5445     5219     5220 1
    5446     5221     5222 1
    5447     5222     5223 1
    5448     5222     5336 1
    5449     5223     5258 1
    5450     5224     5225 1
    5451     5224     5259 1
    5452     5224     5260 1
    5453     5225     5226 1
    5454     5225     5232 1
    5455     5225     5261 1
    5456     5226     5227 1
    5457     5226     5262 1
    5458     5226     5263 1
    5459     5227     5228 1
    5460     5227     5264 1
    5461     5227     5265 1
    5462     5228     5229 1
    5463     5228     5266 1
    5464     5228     5267 1
    5465     5229     5230 1
    5466     5229     5268 1
    5467     5229     5269 1
    5468     5230     5231 1
    5469     5230     5270 1
    5470     5230     5271 1
    5471     5231     5272 1
    5472     5231     5273 1
    5473     5231     5274 1
    5474     5232     5233 1
    5475     5232     5275 1
    5476     5232     5276 1
    5477     5233     5234 1
    5478     5233     5277 1
    5479     5233     5278 1
    5480     5234     5235 1
    5481     5234     5279 1
    5482     5234     5280 1
    5483     5235     5236 1
    5484     5235     5281 1
    5485     5235     5282 1
    5486     5236     5237 1
    5487     5236     5283 1
    5488     5236     5284 1
    5489     5237     5238 1
    5490     5237     5285 1
    5491     5237     5286 1
    5492     5238     5239 1
    5493     5238     5287 1
    5494     5238     5288 1
    5495     5239     5289 1
    5496     5239     5290 1
    5497     5239     5291 1
    5498     5240     5241 1
    5499     5240     5292 1
    5500     5240     5293 1
    5501     5241     5242 1
    5502     5241     5248 1
    5503     5241     5294 1
    5504     5242     5243 1
    5505     5242     5295 1
    5506     5242     5296 1
    5507     5243     5244 1
    5508     5243     5297 1
    5509     5243     5298 1
    5510     5244     5245 1
    5511     5244     5299 1
    5512     5244     5300 1
    5513     5245     5246 1
    5514     5245     5301 1
    5515     5245     5302 1
    5516     5246     5247 1
    5517     5246     5303 1
    5518     5246     5304 1
    5519     5247     5305 1
    5520     5247     5306 1
    5521     5247     5307 1
    5522     5248     5249 1
    5523     5248     5308 1
    5524     5248     5309 1
    5525     5249     5250 1
    5526     5249     5310 1
    5527     5249     5311 1
    5528     5250     5251 1
    5529     5250     5312 1
    5530     5250     5313 1
    5531     5251     5252 1
    5532     5251     5314 1
    5533     5251     5315 1
    5534     5252     5253 1
    5535     5252     5316 1
    5536     5252     5317 1
    5537     5253     5254 1
    5538     5253     5318 1
    5539     5253     5319 1
    5540     5254     5255 1
    5541     5254     5320 1
    5542     5254     5321 1
    5543     5255     5322 1
    5544     5255     5323 1
    5545     5255     5324 1
    5546     5325     5326 1
    5547     5325     5345 1
    5548     5325     5361 1
    5549     5325     5329 1
    5550     5326     5327 1
    5551     5326     5344 1
    5552     5327     5328 1
    5553     5327     5342 1
    5554     5328     5329 1
    5555     5328     5332 1
    5556     5329     5330 1
    5557     5330     5331 1
    5558     5330     5377 1
    5559     5331     5332 1
    5560     5331     5333 1
    5561     5333     5334 1
    5562     5333     5338 1
    5563     5334     5335 1
    5564     5334     5378 1
    5565     5335     5336 1
    5566     5336     5337 1
    5567     5337     5338 1
    5568     5337     5341 1
    5569     5338     5339 1
    5570     5339     5340 1
    5571     5340     5341 1
    5572     5342     5343 1
    5573     5343     5344 1
    5574     5343     5457 1
    5575     5344     5379 1
    5576     5345     5346 1
    5577     5345     5380 1
    5578     5345     5381 1
    5579     5346     5347 1
    5580     5346     5353 1
    5581     5346     5382 1
    5582     5347     5348 1
    5583     5347     5383 1
    5584     5347     5384 1
    5585     5348     5349 1
    5586     5348     5385 1
    5587     5348     5386 1
    5588     5349     5350 1
    5589     5349     5387 1
    5590     5349     5388 1
    5591     5350     5351 1
    5592     5350     5389 1
    5593     5350     5390 1
    5594     5351     5352 1
    5595     5351     5391 1
    5596     5351     5392 1
    5597     5352     5393 1
    5598     5352     5394 1
    5599     5352     5395 1
    5600     5353     5354 1
    5601     5353     5396 1
    5602     5353     5397 1
    5603     5354     5355 1
    5604     5354     5398 1
    5605     5354     5399 1
    5606     5355     5356 1
    5607     5355     5400 1
    5608     5355     5401 1
    5609     5356     5357 1
    5610     5356     5402 1
    5611     5356     5403 1
    5612     5357     5358 1
    5613     5357     5404 1
    5614     5357     5405 1
    5615     5358     5359 1
    5616     5358     5406 1
    5617     5358     5407 1
    5618     5359     5360 1
    5619     5359     5408 1
    5620     5359     5409 1
    5621     5360     5410 1
    5622     5360     5411 1
    5623     5360     5412 1
    5624     5361     5362 1
    5625     5361     5413 1
    5626     5361     5414 1
    5627     5362     5363 1
    5628     5362     5369 1
    5629     5362     5415 1
    5630     5363     5364 1
    5631     5363     5416 1
    5632     5363     5417 1
    5633     5364     5365 1
    5634     5364     5418 1
    5635     5364     5419 1
    5636     5365     5366 1
    5637     5365     5420 1
    5638     5365     5421 1
    5639     5366     5367 1
    5640     5366     5422 1
    5641     5366     5423 1
    5642     5367     5368 1
    5643     5367     5424 1
    5644     5367     5425 1
    5645     5368     5426 1
    5646     5368     5427 1
    5647     5368     5428 1
    5648     5369     5370 1
    5649     5369     5429 1
    5650     5369     5430 1
    5651     5370     5371 1
    5652     5370     5431 1
    5653     5370     5432 1
    5654     5371     5372 1
    5655     5371     5433 1
    5656     5371     5434 1
    5657     5372     5373 1
    5658     5372     5435 1
    5659     5372     5436 1
    5660     5373     5374 1
    5661     5373     5437 1
    5662     5373     5438 1
    5663     5374     5375 1
    5664     5374     5439 1
    5665     5374     5440 1
    5666     5375     5376 1
    5667     5375     5441 1
    5668     5375     5442 1
    5669     5376     5443 1
    5670     5376     5444 1
    5671     5376     5445 1
    5672     5446     5447 1
    5673     5446     5466 1
    5674     5446     5482 1
    5675     5446     5450 1
    5676     5447     5448 1
    5677     5447     5465 1
    5678     5448     5449 1
    5679     5448     5463 1
    5680     5449     5450 1
    5681     5449     5453 1
    5682     5450     5451 1
    5683     5451     5452 1
    5684     5451     5498 1
    5685     5452     5453 1
    5686     5452     5454 1
    5687     5454     5455 1
    5688     5454     5459 1
    5689     5455     5456 1
    5690     5455     5499 1
    5691     5456     5457 1
    5692     5457     5458 1
    5693     5458     5459 1
    5694     5458     5462 1
    5695     5459     5460 1
    5696     5460     5461 1
    5697     5461     5462 1
    5698     5463     5464 1
    5699     5464     5465 1
    5700     5464     5578 1
    5701     5465     5500 1
    5702     5466     5467 1
    5703     5466     5501 1
    5704     5466     5502 1
    5705     5467     5468 1
    5706     5467     5474 1
    5707     5467     5503 1
    5708     5468     5469 1
    5709     5468     5504 1
    5710     5468     5505 1
    5711     5469     5470 1
    5712     5469     5506 1
    5713     5469     5507 1
    5714     5470     5471 1
    5715     5470     5508 1
    5716     5470     5509 1
    5717     5471     5472 1
    5718     5471     5510 1
    5719     5471     5511 1
    5720     5472     5473 1
    5721     5472     5512 1
    5722     5472     5513 1
    5723     5473     5514 1
    5724     5473     5515 1
    5725     5473     5516 1
    5726     5474     5475 1
    5727     5474     5517 1
    5728     5474     5518 1
    5729     5475     5476 1
    5730     5475     5519 1
    5731     5475     5520 1
    5732     5476     5477 1
    5733     5476     5521 1
    5734     5476     5522 1
    5735     5477     5478 1
    5736     5477     5523 1
    5737     5477     5524 1
    5738     5478     5479 1
    5739     5478     5525 1
    5740     5478     5526 1
    5741     5479     5480 1
    5742     5479     5527 1
    5743     5479     5528 1
    5744     5480     5481 1
    5745     5480     5529 1
    5746     5480     5530 1
    5747     5481     5531 1
    5748     5481     5532 1
    5749     5481     5533 1
    5750     5482     5483 1
    5751     5482     5534 1
    5752     5482     5535 1
    5753     5483     5484 1
    5754     5483     5490 1
    5755     5483     5536 1
    5756     5484     5485 1
    5757     5484     5537 1
    5758     5484     5538 1
    5759     5485     5486 1
    5760     5485     5539 1
    5761     5485     5540 1
    5762     5486     5487 1
    5763     5486     5541 1
    5764     5486     5542 1
    5765     5487     5488 1
    5766     5487     5543 1
    5767     5487     5544 1
    5768     5488     5489 1
    5769     5488     5545 1
    5770     5488     5546 1
    5771     5489     5547 1
    5772     5489     5548 1
    5773     5489     5549 1
    5774     5490     5491 1
    5775     5490     5550 1
    5776     5490     5551 1
    5777     5491     5492 1
    5778     5491     5552 1
    5779     5491     5553 1
    5780     5492     5493 1
    5781     5492     5554 1
    5782     5492     5555 1
    5783     5493     5494 1
    5784     5493     5556 1
    5785     5493     5557 1
    5786     5494     5495 1
    5787     5494     5558 1
    5788     5494     5559 1
    5789     5495     5496 1
    5790     5495     5560 1
    5791     5495     5561 1
    5792     5496     5497 1
    5793     5496     5562 1
    5794     5496     5563 1
    5795     5497     5564 1
    5796     5497     5565 1
    5797     5497     5566 1
    5798     5567     5568 1
    5799     5567     5587 1
    5800     5567     5603 1
    5801     5567     5571 1
    5802     5568     5569 1
    5803     5568     5586 1
    5804     5569     5570 1
    5805     5569     5584 1
    5806     5570     5571 1
    5807     5570     5574 1
    5808     5571     5572 1
    5809     5572     5573 1
    5810     5572     5619 1
    5811     5573     5574 1
    5812     5573     5575 1
    5813     5575     5576 1
    5814     5575     5580 1
    5815     5576     5577 1
    5816     5576     5620 1
    5817     5577     5578 1
    5818     5578     5579 1
    5819     5579     5580 1
    5820     5579     5583 1
    5821     5580     5581 1
    5822     5581     5582 1
    5823     5582     5583 1
    5824     5584     5585 1
    5825     5585     5586 1
    5826     5585     5699 1
    5827     5586     5621 1
    5828     5587     5588 1
    5829     5587     5622 1
    5830     5587     5623 1
    5831     5588     5589 1
    5832     5588     5595 1
    5833     5588     5624 1
    5834     5589     5590 1
    5835     5589     5625 1
    5836     5589     5626 1
    5837     5590     5591 1
    5838     5590     5627 1
    5839     5590     5628 1
    5840     5591     5592 1
    5841     5591     5629 1
    5842     5591     5630 1
    5843     5592     5593 1
    5844     5592     5631 1
    5845     5592     5632 1
    5846     5593     5594 1
    5847     5593     5633 1
    5848     5593     5634 1
    5849     5594     5635 1
    5850     5594     5636 1
    5851     5594     5637 1
    5852     5595     5596 1
    5853     5595     5638 1
    5854     5595     5639 1
    5855     5596     5597 1
    5856     5596     5640 1
    5857     5596     5641 1
    5858     5597     5598 1
    5859     5597     5642 1
    5860     5597     5643 1
    5861     5598     5599 1
    5862     5598     5644 1
    5863     5598     5645 1
    5864     5599     5600 1
    5865     5599     5646 1
    5866     5599     5647 1
    5867     5600     5601 1
    5868     5600     5648 1
    5869     5600     5649 1
    5870     5601     5602 1
    5871     5601     5650 1
    5872     5601     5651 1
    5873     5602     5652 1
    5874     5602     5653 1
    5875     5602     5654 1
    5876     5603     5604 1
    5877     5603     5655 1
    5878     5603     5656 1
    5879     5604     5605 1
    5880     5604     5611 1
    5881     5604     5657 1
    5882     5605     5606 1
    5883     5605     5658 1
    5884     5605     5659 1
    5885     5606     5607 1
    5886     5606     5660 1
    5887     5606     5661 1
    5888     5607     5608 1
    5889     5607     5662 1
    5890     5607     5663 1
    5891     5608     5609 1
    5892     5608     5664 1
    5893     5608     5665 1
    5894     5609     5610 1
    5895     5609     5666 1
    5896     5609     5667 1
    5897     5610     5668 1
    5898     5610     5669 1
    5899     5610     5670 1
    5900     5611     5612 1
    5901     5611     5671 1
    5902     5611     5672 1
    5903     5612     5613 1
    5904     5612     5673 1
    5905     5612     5674 1
    5906     5613     5614 1
    5907     5613     5675 1
    5908     5613     5676 1
    5909     5614     5615 1
    5910     5614     5677 1
    5911     5614     5678 1
    5912     5615     5616 1
    5913     5615     5679 1
    5914     5615     5680 1
    5915     5616     5617 1
    5916     5616     5681 1
    5917     5616     5682 1
    5918     5617     5618 1
    5919     5617     5683 1
    5920     5617     5684 1
    5921     5618     5685 1
    5922     5618     5686 1
    5923     5618     5687 1
    5924     5688     5689 1
    5925     5688     5708 1
    5926     5688     5724 1
    5927     5688     5692 1
    5928     5689     5690 1
    5929     5689     5707 1
    5930     5690     5691 1
    5931     5690     5705 1
    5932     5691     5692 1
    5933     5691     5695 1
    5934     5692     5693 1
    5935     5693     5694 1
    5936     5693     5740 1
    5937     5694     5695 1
    5938     5694     5696 1
    5939     5696     5697 1
    5940     5696     5701 1
    5941     5697     5698 1
    5942     5697     5741 1
    5943     5698     5699 1
    5944     5699     5700 1
    5945     5700     5701 1
    5946     5700     5704 1
    5947     5701     5702 1
    5948     5702     5703 1
    5949     5703     5704 1
    5950     5705     5706 1
    5951     5706     5707 1
    5952     5706     5820 1
    5953     5707     5742 1
    5954     5708     5709 1
    5955     5708     5743 1
    5956     5708     5744 1
    5957     5709     5710 1
    5958     5709     5716 1
    5959     5709     5745 1
    5960     5710     5711 1
    5961     5710     5746 1
    5962     5710     5747 1
    5963     5711     5712 1
    5964     5711     5748 1
    5965     5711     5749 1
    5966     5712     5713 1
    5967     5712     5750 1
    5968     5712     5751 1
    5969     5713     5714 1
    5970     5713     5752 1
    5971     5713     5753 1
    5972     5714     5715 1
    5973     5714     5754 1
    5974     5714     5755 1
    5975     5715     5756 1
    5976     5715     5757 1
    5977     5715     5758 1
    5978     5716     5717 1
    5979     5716     5759 1
    5980     5716     5760 1
    5981     5717     5718 1
    5982     5717     5761 1
    5983     5717     5762 1
    5984     5718     5719 1
    5985     5718     5763 1
    5986     5718     5764 1
    5987     5719     5720 1
    5988     5719     5765 1
    5989     5719     5766 1
    5990     5720     5721 1
    5991     5720     5767 1
    5992     5720     5768 1
    5993     5721     5722 1
    5994     5721     5769 1
    5995     5721     5770 1
    5996     5722     5723 1
    5997     5722     5771 1
    5998     5722     5772 1
    5999     5723     5773 1
    6000     5723     5774 1
    6001     5723     5775 1
    6002     5724     5725 1
    6003     5724     5776 1
    6004     5724     5777 1
    6005     5725     5726 1
    6006     5725     5732 1
    6007     5725     5778 1
    6008     5726     5727 1
    6009     5726     5779 1
    6010     5726     5780 1
    6011     5727     5728 1
    6012     5727     5781 1
    6013     5727     5782 1
    6014     5728     5729 1
    6015     5728     5783 1
    6016     5728     5784 1
    6017     5729     5730 1
    6018     5729     5785 1
    6019     5729     5786 1
    6020     5730     5731 1
    6021     5730     5787 1
    6022     5730     5788 1
    6023     5731     5789 1
    6024     5731     5790 1
    6025     5731     5791 1
    6026     5732     5733 1
    6027     5732     5792 1
    6028     5732     5793 1
    6029     5733     5734 1
    6030     5733     5794 1
    6031     5733     5795 1
    6032     5734     5735 1
    6033     5734     5796 1
    6034     5734     5797 1
    6035     5735     5736 1
    6036     5735     5798 1
    6037     5735     5799 1
    6038     5736     5737 1
    6039     5736     5800 1
    6040     5736     5801 1
    6041     5737     5738 1
    6042     5737     5802 1
    6043     5737     5803 1
    6044     5738     5739 1
    6045     5738     5804 1
    6046     5738     5805 1
    6047     5739     5806 1
    6048     5739     5807 1
    6049     5739     5808 1
    6050     5809     5810 1
    6051     5809     5829 1
    6052     5809     5845 1
    6053     5809     5813 1
    6054     5810     5811 1
    6055     5810     5828 1
    6056     5811     5812 1
    6057     5811     5826 1
    6058     5812     5813 1
    6059     5812     5816 1
    6060     5813     5814 1
    6061     5814     5815 1
    6062     5814     5861 1
    6063     5815     5816 1
    6064     5815     5817 1
    6065     5817     5818 1
    6066     5817     5822 1
    6067     5818     5819 1
    6068     5818     5862 1
    6069     5819     5820 1
    6070     5820     5821 1
    6071     5821     5822 1
    6072     5821     5825 1
    6073     5822     5823 1
    6074     5823     5824 1
    6075     5824     5825 1
    6076     5826     5827 1
    6077     5827     5828 1
    6078     5827     5941 1
    6079     5828     5863 1
    6080     5829     5830 1
    6081     5829     5864 1
    6082     5829     5865 1
    6083     5830     5831 1
    6084     5830     5837 1
    6085     5830     5866 1
    6086     5831     5832 1
    6087     5831     5867 1
    6088     5831     5868 1
    6089     5832     5833 1
    6090     5832     5869 1
    6091     5832     5870 1
    6092     5833     5834 1
    6093     5833     5871 1
    6094     5833     5872 1
    6095     5834     5835 1
    6096     5834     5873 1
    6097     5834     5874 1
    6098     5835     5836 1
    6099     5835     5875 1
    6100     5835     5876 1
    6101     5836     5877 1
    6102     5836     5878 1
    6103     5836     5879 1
    6104     5837     5838 1
    6105     5837     5880 1
    6106     5837     5881 1
    6107     5838     5839 1
    6108     5838     5882 1
    6109     5838     5883 1
    6110     5839     5840 1
    6111     5839     5884 1
    6112     5839     5885 1
    6113     5840     5841 1
    6114     5840     5886 1
    6115     5840     5887 1
    6116     5841     5842 1
    6117     5841     5888 1
    6118     5841     5889 1
    6119     5842     5843 1
    6120     5842     5890 1
    6121     5842     5891 1
    6122     5843     5844 1
    6123     5843     5892 1
    6124     5843     5893 1
    6125     5844     5894 1
    6126     5844     5895 1
    6127     5844     5896 1
    6128     5845     5846 1
    6129     5845     5897 1
    6130     5845     5898 1
    6131     5846     5847 1
    6132     5846     5853 1
    6133     5846     5899 1
    6134     5847     5848 1
    6135     5847     5900 1
    6136     5847     5901 1
    6137     5848     5849 1
    6138     5848     5902 1
    6139     5848     5903 1
    6140     5849     5850 1
    6141     5849     5904 1
    6142     5849     5905 1
    6143     5850     5851 1
    6144     5850     5906 1
    6145     5850     5907 1
    6146     5851     5852 1
    6147     5851     5908 1
    6148     5851     5909 1
    6149     5852     5910 1
    6150     5852     5911 1
    6151     5852     5912 1
    6152     5853     5854 1
    6153     5853     5913 1
    6154     5853     5914 1
    6155     5854     5855 1
    6156     5854     5915 1
    6157     5854     5916 1
    6158     5855     5856 1
    6159     5855     5917 1
    6160     5855     5918 1
    6161     5856     5857 1
    6162     5856     5919 1
    6163     5856     5920 1
    6164     5857     5858 1
    6165     5857     5921 1
    6166     5857     5922 1
    6167     5858     5859 1
    6168     5858     5923 1
    6169     5858     5924 1
    6170     5859     5860 1
    6171     5859     5925 1
    6172     5859     5926 1
    6173     5860     5927 1
    6174     5860     5928 1
    6175     5860     5929 1
    6176     5930     5931 1
    6177     5930     5950 1
    6178     5930     5966 1
    6179     5930     5934 1
    6180     5931     5932 1
    6181     5931     5949 1
    6182     5932     5933 1
    6183     5932     5947 1
    6184     5933     5934 1
    6185     5933     5937 1
    6186     5934     5935 1
    6187     5935     5936 1
    6188     5935     5982 1
    6189     5936     5937 1
    6190     5936     5938 1
    6191     5938     5939 1
    6192     5938     5943 1
    6193     5939     5940 1
    6194     5939     5983 1
    6195     5940     5941 1
    6196     5941     5942 1
    6197     5942     5943 1
    6198     5942     5946 1
    6199     5943     5944 1
    6200     5944     5945 1
    6201     5945     5946 1
    6202     5947     5948 1
    6203     5948     5949 1
    6204     5948     6062 1
    6205     5949     5984 1
    6206     5950     5951 1
    6207     5950     5985 1
    6208     5950     5986 1
    6209     5951     5952 1
    6210     5951     5958 1
    6211     5951     5987 1
    6212     5952     5953 1
    6213     5952     5988 1
    6214     5952     5989 1
    6215     5953     5954 1
    6216     5953     5990 1
    6217     5953     5991 1
    6218     5954     5955 1
    6219     5954     5992 1
    6220     5954     5993 1
    6221     5955     5956 1
    6222     5955     5994 1
    6223     5955     5995 1
    6224     5956     5957 1
    6225     5956     5996 1
    6226     5956     5997 1
    6227     5957     5998 1
    6228     5957     5999 1
    6229     5957     6000 1
    6230     5958     5959 1
    6231     5958     6001 1
    6232     5958     6002 1
    6233     5959     5960 1
    6234     5959     6003 1
    6235     5959     6004 1
    6236     5960     5961 1
    6237     5960     6005 1
    6238     5960     6006 1
    6239     5961     5962 1
    6240     5961     6007 1
    6241     5961     6008 1
    6242     5962     5963 1
    6243     5962     6009 1
    6244     5962     6010 1
    6245     5963     5964 1
    6246     5963     6011 1
    6247     5963     6012 1
    6248     5964     5965 1
    6249     5964     6013 1
    6250     5964     6014 1
    6251     5965     6015 1
    6252     5965     6016 1
    6253     5965     6017 1
    6254     5966     5967 1
    6255     5966     6018 1
    6256     5966     6019 1
    6257     5967     5968 1
    6258     5967     5974 1
    6259     5967     6020 1
    6260     5968     5969 1
    6261     5968     6021 1
    6262     5968     6022 1
    6263     5969     5970 1
    6264     5969     6023 1
    6265     5969     6024 1
    6266     5970     5971 1
    6267     5970     6025 1
    6268     5970     6026 1
    6269     5971     5972 1
    6270     5971     6027 1
    6271     5971     6028 1
    6272     5972     5973 1
    6273     5972     6029 1
    6274     5972     6030 1
    6275     5973     6031 1
    6276     5973     6032 1
    6277     5973     6033 1
    6278     5974     5975 1
    6279     5974     6034 1
    6280     5974     6035 1
    6281     5975     5976 1
    6282     5975     6036 1
    6283     5975     6037 1
    6284     5976     5977 1
    6285     5976     6038 1
    6286     5976     6039 1
    6287     5977     5978 1
    6288     5977     6040 1
    6289     5977     6041 1
    6290     5978     5979 1
    6291     5978     6042 1
    6292     5978     6043 1
    6293     5979     5980 1
    6294     5979     6044 1
    6295     5979     6045 1
    6296     5980     5981 1
    6297     5980     6046 1
    6298     5980     6047 1
    6299     5981     6048 1
    6300     5981     6049 1
    6301     5981     6050 1
    6302     6051     6052 1
    6303     6051     6071 1
    6304     6051     6087 1
    6305     6051     6055 1
    6306     6052     6053 1
    6307     6052     6070 1
    6308     6053     6054 1
    6309     6053     6068 1
    6310     6054     6055 1
    6311     6054     6058 1
    6312     6055     6056 1
    6313     6056     6057 1
    6314     6056     6103 1
    6315     6057     6058 1
    6316     6057     6059 1
    6317     6059     6060 1
    6318     6059     6064 1
    6319     6060     6061 1
    6320     6060     6104 1
    6321     6061     6062 1
    6322     6062     6063 1
    6323     6063     6064 1
    6324     6063     6067 1
    6325     6064     6065 1
    6326     6065     6066 1
    6327     6066     6067 1
    6328     6068     6069 1
    6329     6069     6070 1
    6330     6069     6183 1
    6331     6070     6105 1
    6332     6071     6072 1
    6333     6071     6106 1
    6334     6071     6107 1
    6335     6072     6073 1
    6336     6072     6079 1
    6337     6072     6108 1
    6338     6073     6074 1
    6339     6073     6109 1
    6340     6073     6110 1
    6341     6074     6075 1
    6342     6074     6111 1
    6343     6074     6112 1
    6344     6075     6076 1
    6345     6075     6113 1
    6346     6075     6114 1
    6347     6076     6077 1
    6348     6076     6115 1
    6349     6076     6116 1
    6350     6077     6078 1
    6351     6077     6117 1
    6352     6077     6118 1
    6353     6078     6119 1
    6354     6078     6120 1
    6355     6078     6121 1
    6356     6079     6080 1
    6357     6079     6122 1
    6358     6079     6123 1
    6359     6080     6081 1
    6360     6080     6124 1
    6361     6080     6125 1
    6362     6081     6082 1
    6363     6081     6126 1
    6364     6081     6127 1
    6365     6082     6083 1
    6366     6082     6128 1
    6367     6082     6129 1
    6368     6083     6084 1
    6369     6083     6130 1
    6370     6083     6131 1
    6371     6084     6085 1
    6372     6084     6132 1
    6373     6084     6133 1
    6374     6085     6086 1
    6375     6085     6134 1
    6376     6085     6135 1
    6377     6086     6136 1
    6378     6086     6137 1
    6379     6086     6138 1
    6380     6087     6088 1
    6381     6087     6139 1
    6382     6087     6140 1
    6383     6088     6089 1
    6384     6088     6095 1
    6385     6088     6141 1
    6386     6089     6090 1
    6387     6089     6142 1
    6388     6089     6143 1
    6389     6090     6091 1
    6390     6090     6144 1
    6391     6090     6145 1
    6392     6091     6092 1
    6393     6091     6146 1
    6394     6091     6147 1
    6395     6092     6093 1
    6396     6092     6148 1
    6397     6092     6149 1
    6398     6093     6094 1
    6399     6093     6150 1
    6400     6093     6151 1
    6401     6094     6152 1
    6402     6094     6153 1
    6403     6094     6154 1
    6404     6095     6096 1
    6405     6095     6155 1
    6406     6095     6156 1
    6407     6096     6097 1
    6408     6096     6157 1
    6409     6096     6158 1
    6410     6097     6098 1
    6411     6097     6159 1
    6412     6097     6160 1
    6413     6098     6099 1
    6414     6098     6161 1
    6415     6098     6162 1
    6416     6099     6100 1
    6417     6099     6163 1
    6418     6099     6164 1
    6419     6100     6101 1
    6420     6100     6165 1
    6421     6100     6166 1
    6422     6101     6102 1
    6423     6101     6167 1
    6424     6101     6168 1
    6425     6102     6169 1
    6426     6102     6170 1
    6427     6102     6171 1
    6428     6172     6173 1
    6429     6172     6192 1
    6430     6172     6208 1
    6431     6172     6176 1
    6432     6173     6174 1
    6433     6173     6191 1
    6434     6174     6175 1
    6435     6174     6189 1
    6436     6175     6176 1
    6437     6175     6179 1
    6438     6176     6177 1
    6439     6177     6178 1
    6440     6177     6224 1
    6441     6178     6179 1
    6442     6178     6180 1
    6443     6180     6181 1
    6444     6180     6185 1
    6445     6181     6182 1
    6446     6181     6225 1
    6447     6182     6183 1
    6448     6183     6184 1
    6449     6184     6185 1
    6450     6184     6188 1
    6451     6185     6186 1
    6452     6186     6187 1
    6453     6187     6188 1
    6454     6189     6190 1
    6455     6190     6191 1
    6456     6190     6304 1
    6457     6191     6226 1
    6458     6192     6193 1
    6459     6192     6227 1
    6460     6192     6228 1
    6461     6193     6194 1
    6462     6193     6200 1
    6463     6193     6229 1
    6464     6194     6195 1
    6465     6194     6230 1
    6466     6194     6231 1
    6467     6195     6196 1
    6468     6195     6232 1
    6469     6195     6233 1
    6470     6196     6197 1
    6471     6196     6234 1
    6472     6196     6235 1
    6473     6197     6198 1
    6474     6197     6236 1
    6475     6197     6237 1
    6476     6198     6199 1
    6477     6198     6238 1
    6478     6198     6239 1
    6479     6199     6240 1
    6480     6199     6241 1
    6481     6199     6242 1
    6482     6200     6201 1
    6483     6200     6243 1
    6484     6200     6244 1
    6485     6201     6202 1
    6486     6201     6245 1
    6487     6201     6246 1
    6488     6202     6203 1
    6489     6202     6247 1
    6490     6202     6248 1
    6491     6203     6204 1
    6492     6203     6249 1
    6493     6203     6250 1
    6494     6204     6205 1
    6495     6204     6251 1
    6496     6204     6252 1
    6497     6205     6206 1
    6498     6205     6253 1
    6499     6205     6254 1
    6500     6206     6207 1
    6501     6206     6255 1
    6502     6206     6256 1
    6503     6207     6257 1
    6504     6207     6258 1
    6505     6207     6259 1
    6506     6208     6209 1
    6507     6208     6260 1
    6508     6208     6261 1
    6509     6209     6210 1
    6510     6209     6216 1
    6511     6209     6262 1
    6512     6210     6211 1
    6513     6210     6263 1
    6514     6210     6264 1
    6515     6211     6212 1
    6516     6211     6265 1
    6517     6211     6266 1
    6518     6212     6213 1
    6519     6212     6267 1
    6520     6212     6268 1
    6521     6213     6214 1
    6522     6213     6269 1
    6523     6213     6270 1
    6524     6214     6215 1
    6525     6214     6271 1
    6526     6214     6272 1
    6527     6215     6273 1
    6528     6215     6274 1
    6529     6215     6275 1
    6530     6216     6217 1
    6531     6216     6276 1
    6532     6216     6277 1
    6533     6217     6218 1
    6534     6217     6278 1
    6535     6217     6279 1
    6536     6218     6219 1
    6537     6218     6280 1
    6538     6218     6281 1
    6539     6219     6220 1
    6540     6219     6282 1
    6541     6219     6283 1
    6542     6220     6221 1
    6543     6220     6284 1
    6544     6220     6285 1
    6545     6221     6222 1
    6546     6221     6286 1
    6547     6221     6287 1
    6548     6222     6223 1
    6549     6222     6288 1
    6550     6222     6289 1
    6551     6223     6290 1
    6552     6223     6291 1
    6553     6223     6292 1
    6554     6293     6294 1
    6555     6293     6313 1
    6556     6293     6329 1
    6557     6293     6297 1
    6558     6294     6295 1
    6559     6294     6312 1
    6560     6295     6296 1
    6561     6295     6310 1
    6562     6296     6297 1
    6563     6296     6300 1
    6564     6297     6298 1
    6565     6298     6299 1
    6566     6298     6345 1
    6567     6299     6300 1
    6568     6299     6301 1
    6569     6301     6302 1
    6570     6301     6306 1
    6571     6302     6303 1
    6572     6302     6346 1
    6573     6303     6304 1
    6574     6304     6305 1
    6575     6305     6306 1
    6576     6305     6309 1
    6577     6306     6307 1
    6578     6307     6308 1
    6579     6308     6309 1
    6580     6310     6311 1
    6581     6311     6312 1
    6582     6311     6425 1
    6583     6312     6347 1
    6584     6313     6314 1
    6585     6313     6348 1
    6586     6313     6349 1
    6587     6314     6315 1
    6588     6314     6321 1
    6589     6314     6350 1
    6590     6315     6316 1
    6591     6315     6351 1
    6592     6315     6352 1
    6593     6316     6317 1
    6594     6316     6353 1
    6595     6316     6354 1
    6596     6317     6318 1
    6597     6317     6355 1
    6598     6317     6356 1
    6599     6318     6319 1
    6600     6318     6357 1
    6601     6318     6358 1
    6602     6319     6320 1
    6603     6319     6359 1
    6604     6319     6360 1
    6605     6320     6361 1
    6606     6320     6362 1
    6607     6320     6363 1
    6608     6321     6322 1
    6609     6321     6364 1
    6610     6321     6365 1
    6611     6322     6323 1
    6612     6322     6366 1
    6613     6322     6367 1
    6614     6323     6324 1
    6615     6323     6368 1
    6616     6323     6369 1
    6617     6324     6325 1
    6618     6324     6370 1
    6619     6324     6371 1
    6620     6325     6326 1
    6621     6325     6372 1
    6622     6325     6373 1
    6623     6326     6327 1
    6624     6326     6374 1
    6625     6326     6375 1
    6626     6327     6328 1
    6627     6327     6376 1
    6628     6327     6377 1
    6629     6328     6378 1
    6630     6328     6379 1
    6631     6328     6380 1
    6632     6329     6330 1
    6633     6329     6381 1
    6634     6329     6382 1
    6635     6330     6331 1
    6636     6330     6337 1
    6637     6330     6383 1
    6638     6331     6332 1
    6639     6331     6384 1
    6640     6331     6385 1
    6641     6332     6333 1
    6642     6332     6386 1
    6643     6332     6387 1
    6644     6333     6334 1
    6645     6333     6388 1
    6646     6333     6389 1
    6647     6334     6335 1
    6648     6334     6390 1
    6649     6334     6391 1
    6650     6335     6336 1
    6651     6335     6392 1
    6652     6335     6393 1
    6653     6336     6394 1
    6654     6336     6395 1
    6655     6336     6396 1
    6656     6337     6338 1
    6657     6337     6397 1
    6658     6337     6398 1
    6659     6338     6339 1
    6660     6338     6399 1
    6661     6338     6400 1
    6662     6339     6340 1
    6663     6339     6401 1
    6664     6339     6402 1
    6665     6340     6341 1
    6666     6340     6403 1
    6667     6340     6404 1
    6668     6341     6342 1
    6669     6341     6405 1
    6670     6341     6406 1
    6671     6342     6343 1
    6672     6342     6407 1
    6673     6342     6408 1
    6674     6343     6344 1
    6675     6343     6409 1
    6676     6343     6410 1
    6677     6344     6411 1
    6678     6344     6412 1
    6679     6344     6413 1
    6680     6414     6415 1
    6681     6414     6434 1
    6682     6414     6450 1
    6683     6414     6418 1
    6684     6415     6416 1
    6685     6415     6433 1
    6686     6416     6417 1
    6687     6416     6431 1
    6688     6417     6418 1
    6689     6417     6421 1
    6690     6418     6419 1
    6691     6419     6420 1
    6692     6419     6466 1
    6693     6420     6421 1
    6694     6420     6422 1
    6695     6422     6423 1
    6696     6422     6427 1
    6697     6423     6424 1
    6698     6423     6467 1
    6699     6424     6425 1
    6700     6425     6426 1
    6701     6426     6427 1
    6702     6426     6430 1
    6703     6427     6428 1
    6704     6428     6429 1
    6705     6429     6430 1
    6706     6431     6432 1
    6707     6432     6433 1
    6708     6432     6546 1
    6709     6433     6468 1
    6710     6434     6435 1
    6711     6434     6469 1
    6712     6434     6470 1
    6713     6435     6436 1
    6714     6435     6442 1
    6715     6435     6471 1
    6716     6436     6437 1
    6717     6436     6472 1
    6718     6436     6473 1
    6719     6437     6438 1
    6720     6437     6474 1
    6721     6437     6475 1
    6722     6438     6439 1
    6723     6438     6476 1
    6724     6438     6477 1
    6725     6439     6440 1
    6726     6439     6478 1
    6727     6439     6479 1
    6728     6440     6441 1
    6729     6440     6480 1
    6730     6440     6481 1
    6731     6441     6482 1
    6732     6441     6483 1
    6733     6441     6484 1
    6734     6442     6443 1
    6735     6442     6485 1
    6736     6442     6486 1
    6737     6443     6444 1
    6738     6443     6487 1
    6739     6443     6488 1
    6740     6444     6445 1
    6741     6444     6489 1
    6742     6444     6490 1
    6743     6445     6446 1
    6744     6445     6491 1
    6745     6445     6492 1
    6746     6446     6447 1
    6747     6446     6493 1
    6748     6446     6494 1
    6749     6447     6448 1
    6750     6447     6495 1
    6751     6447     6496 1
    6752     6448     6449 1
    6753     6448     6497 1
    6754     6448     6498 1
    6755     6449     6499 1
    6756     6449     6500 1
    6757     6449     6501 1
    6758     6450     6451 1
    6759     6450     6502 1
    6760     6450     6503 1
    6761     6451     6452 1
    6762     6451     6458 1
    6763     6451     6504 1
    6764     6452     6453 1
    6765     6452     6505 1
    6766     6452     6506 1
    6767     6453     6454 1
    6768     6453     6507 1
    6769     6453     6508 1
    6770     6454     6455 1
    6771     6454     6509 1
    6772     6454     6510 1
    6773     6455     6456 1
    6774     6455     6511 1
    6775     6455     6512 1
    6776     6456     6457 1
    6777     6456     6513 1
    6778     6456     6514 1
    6779     6457     6515 1
    6780     6457     6516 1
    6781     6457     6517 1
    6782     6458     6459 1
    6783     6458     6518 1
    6784     6458     6519 1
    6785     6459     6460 1
    6786     6459     6520 1
    6787     6459     6521 1
    6788     6460     6461 1
    6789     6460     6522 1
    6790     6460     6523 1
    6791     6461     6462 1
    6792     6461     6524 1
    6793     6461     6525 1
    6794     6462     6463 1
    6795     6462     6526 1
    6796     6462     6527 1
    6797     6463     6464 1
    6798     6463     6528 1
    6799     6463     6529 1
    6800     6464     6465 1
    6801     6464     6530 1
    6802     6464     6531 1
    6803     6465     6532 1
    6804     6465     6533 1
    6805     6465     6534 1
    6806     6535     6536 1
    6807     6535     6555 1
    6808     6535     6571 1
    6809     6535     6539 1
    6810     6536     6537 1
    6811     6536     6554 1
    6812     6537     6538 1
    6813     6537     6552 1
    6814     6538     6539 1
    6815     6538     6542 1
    6816     6539     6540 1
    6817     6540     6541 1
    6818     6540     6587 1
    6819     6541     6542 1
    6820     6541     6543 1
    6821     6543     6544 1
    6822     6543     6548 1
    6823     6544     6545 1
    6824     6544     6588 1
    6825     6545     6546 1
    6826     6546     6547 1
    6827     6547     6548 1
    6828     6547     6551 1
    6829     6548     6549 1
    6830     6549     6550 1
    6831     6550     6551 1
    6832     6552     6553 1
    6833     6553     6554 1
    6834     6553     6667 1
    6835     6554     6589 1
    6836     6555     6556 1
    6837     6555     6590 1
    6838     6555     6591 1
    6839     6556     6557 1
    6840     6556     6563 1
    6841     6556     6592 1
    6842     6557     6558 1
    6843     6557     6593 1
    6844     6557     6594 1
    6845     6558     6559 1
    6846     6558     6595 1
    6847     6558     6596 1
    6848     6559     6560 1
    6849     6559     6597 1
    6850     6559     6598 1
    6851     6560     6561 1
    6852     6560     6599 1
    6853     6560     6600 1
    6854     6561     6562 1
    6855     6561     6601 1
    6856     6561     6602 1
    6857     6562     6603 1
    6858     6562     6604 1
    6859     6562     6605 1
    6860     6563     6564 1
    6861     6563     6606 1
    6862     6563     6607 1
    6863     6564     6565 1
    6864     6564     6608 1
    6865     6564     6609 1
    6866     6565     6566 1
    6867     6565     6610 1
    6868     6565     6611 1
    6869     6566     6567 1
    6870     6566     6612 1
    6871     6566     6613 1
    6872     6567     6568 1
    6873     6567     6614 1
    6874     6567     6615 1
    6875     6568     6569 1
    6876     6568     6616 1
    6877     6568     6617 1
    6878     6569     6570 1
    6879     6569     6618 1
    6880     6569     6619 1
    6881     6570     6620 1
    6882     6570     6621 1
    6883     6570     6622 1
    6884     6571     6572 1
    6885     6571     6623 1
    6886     6571     6624 1
    6887     6572     6573 1
    6888     6572     6579 1
    6889     6572     6625 1
    6890     6573     6574 1
    6891     6573     6626 1
    6892     6573     6627 1
    6893     6574     6575 1
    6894     6574     6628 1
    6895     6574     6629 1
    6896     6575     6576 1
    6897     6575     6630 1
    6898     6575     6631 1
    6899     6576     6577 1
    6900     6576     6632 1
    6901     6576     6633 1
    6902     6577     6578 1
    6903     6577     6634 1
    6904     6577     6635 1
    6905     6578     6636 1
    6906     6578     6637 1
    6907     6578     6638 1
    6908     6579     6580 1
    6909     6579     6639 1
    6910     6579     6640 1
    6911     6580     6581 1
    6912     6580     6641 1
    6913     6580     6642 1
    6914     6581     6582 1
    6915     6581     6643 1
    6916     6581     6644 1
    6917     6582     6583 1
    6918     6582     6645 1
    6919     6582     6646 1
    6920     6583     6584 1
    6921     6583     6647 1
    6922     6583     6648 1
    6923     6584     6585 1
    6924     6584     6649 1
    6925     6584     6650 1
    6926     6585     6586 1
    6927     6585     6651 1
    6928     6585     6652 1
    6929     6586     6653 1
    6930     6586     6654 1
    6931     6586     6655 1
    6932     6656     6657 1
    6933     6656     6676 1
    6934     6656     6692 1
    6935     6656     6660 1
    6936     6657     6658 1
    6937     6657     6675 1
    6938     6658     6659 1
    6939     6658     6673 1
    6940     6659     6660 1
    6941     6659     6663 1
    6942     6660     6661 1
    6943     6661     6662 1
    6944     6661     6708 1
    6945     6662     6663 1
    6946     6662     6664 1
    6947     6664     6665 1
    6948     6664     6669 1
    6949     6665     6666 1
    6950     6665     6709 1
    6951     6666     6667 1
    6952     6667     6668 1
    6953     6668     6669 1
    6954     6668     6672 1
    6955     6669     6670 1
    6956     6670     6671 1
    6957     6671     6672 1
    6958     6673     6674 1
    6959     6674     6675 1
    6960     6674     6788 1
    6961     6675     6710 1
    6962     6676     6677 1
    6963     6676     6711 1
    6964     6676     6712 1
    6965     6677     6678 1
    6966     6677     6684 1
    6967     6677     6713 1
    6968     6678     6679 1
    6969     6678     6714 1
    6970     6678     6715 1
    6971     6679     6680 1
    6972     6679     6716 1
    6973     6679     6717 1
    6974     6680     6681 1
    6975     6680     6718 1
    6976     6680     6719 1
    6977     6681     6682 1
    6978     6681     6720 1
    6979     6681     6721 1
    6980     6682     6683 1
    6981     6682     6722 1
    6982     6682     6723 1
    6983     6683     6724 1
    6984     6683     6725 1
    6985     6683     6726 1
    6986     6684     6685 1
    6987     6684     6727 1
    6988     6684     6728 1
    6989     6685     6686 1
    6990     6685     6729 1
    6991     6685     6730 1
    6992     6686     6687 1
    6993     6686     6731 1
    6994     6686     6732 1
    6995     6687     6688 1
    6996     6687     6733 1
    6997     6687     6734 1
    6998     6688     6689 1
    6999     6688     6735 1
    7000     6688     6736 1
    7001     6689     6690 1
    7002     6689     6737 1
    7003     6689     6738 1
    7004     6690     6691 1
    7005     6690     6739 1
    7006     6690     6740 1
    7007     6691     6741 1
    7008     6691     6742 1
    7009     6691     6743 1
    7010     6692     6693 1
    7011     6692     6744 1
    7012     6692     6745 1
    7013     6693     6694 1
    7014     6693     6700 1
    7015     6693     6746 1
    7016     6694     6695 1
    7017     6694     6747 1
    7018     6694     6748 1
    7019     6695     6696 1
    7020     6695     6749 1
    7021     6695     6750 1
    7022     6696     6697 1
    7023     6696     6751 1
    7024     6696     6752 1
    7025     6697     6698 1
    7026     6697     6753 1
    7027     6697     6754 1
    7028     6698     6699 1
    7029     6698     6755 1
    7030     6698     6756 1
    7031     6699     6757 1
    7032     6699     6758 1
    7033     6699     6759 1
    7034     6700     6701 1
    7035     6700     6760 1
    7036     6700     6761 1
    7037     6701     6702 1
    7038     6701     6762 1
    7039     6701     6763 1
    7040     6702     6703 1
    7041     6702     6764 1
    7042     6702     6765 1
    7043     6703     6704 1
    7044     6703     6766 1
    7045     6703     6767 1
    7046     6704     6705 1
    7047     6704     6768 1
    7048     6704     6769 1
    7049     6705     6706 1
    7050     6705     6770 1
    7051     6705     6771 1
    7052     6706     6707 1
    7053     6706     6772 1
    7054     6706     6773 1
    7055     6707     6774 1
    7056     6707     6775 1
    7057     6707     6776 1
    7058     6777     6778 1
    7059     6777     6797 1
    7060     6777     6813 1
    7061     6777     6781 1
    7062     6778     6779 1
    7063     6778     6796 1
    7064     6779     6780 1
    7065     6779     6794 1
    7066     6780     6781 1
    7067     6780     6784 1
    7068     6781     6782 1
    7069     6782     6783 1
    7070     6782     6829 1
    7071     6783     6784 1
    7072     6783     6785 1
    7073     6785     6786 1
    7074     6785     6790 1
    7075     6786     6787 1
    7076     6786     6830 1
    7077     6787     6788 1
    7078     6788     6789 1
    7079     6789     6790 1
    7080     6789     6793 1
    7081     6790     6791 1
    7082     6791     6792 1
    7083     6792     6793 1
    7084     6794     6795 1
    7085     6795     6796 1
    7086     6795     6909 1
    7087     6796     6831 1
    7088     6797     6798 1
    7089     6797     6832 1
    7090     6797     6833 1
    7091     6798     6799 1
    7092     6798     6805 1
    7093     6798     6834 1
    7094     6799     6800 1
    7095     6799     6835 1
    7096     6799     6836 1
    7097     6800     6801 1
    7098     6800     6837 1
    7099     6800     6838 1
    7100     6801     6802 1
    7101     6801     6839 1
    7102     6801     6840 1
    7103     6802     6803 1
    7104     6802     6841 1
    7105     6802     6842 1
    7106     6803     6804 1
    7107     6803     6843 1
    7108     6803     6844 1
    7109     6804     6845 1
    7110     6804     6846 1
    7111     6804     6847 1
    7112     6805     6806 1
    7113     6805     6848 1
    7114     6805     6849 1
    7115     6806     6807 1
    7116     6806     6850 1
    7117     6806     6851 1
    7118     6807     6808 1
    7119     6807     6852 1
    7120     6807     6853 1
    7121     6808     6809 1
    7122     6808     6854 1
    7123     6808     6855 1
    7124     6809     6810 1
    7125     6809     6856 1
    7126     6809     6857 1
    7127     6810     6811 1
    7128     6810     6858 1
    7129     6810     6859 1
    7130     6811     6812 1
    7131     6811     6860 1
    7132     6811     6861 1
    7133     6812     6862 1
    7134     6812     6863 1
    7135     6812     6864 1
    7136     6813     6814 1
    7137     6813     6865 1
    7138     6813     6866 1
    7139     6814     6815 1
    7140     6814     6821 1
    7141     6814     6867 1
    7142     6815     6816 1
    7143     6815     6868 1
    7144     6815     6869 1
    7145     6816     6817 1
    7146     6816     6870 1
    7147     6816     6871 1
    7148     6817     6818 1
    7149     6817     6872 1
    7150     6817     6873 1
    7151     6818     6819 1
    7152     6818     6874 1
    7153     6818     6875 1
    7154     6819     6820 1
    7155     6819     6876 1
    7156     6819     6877 1
    7157     6820     6878 1
    7158     6820     6879 1
    7159     6820     6880 1
    7160     6821     6822 1
    7161     6821     6881 1
    7162     6821     6882 1
    7163     6822     6823 1
    7164     6822     6883 1
    7165     6822     6884 1
    7166     6823     6824 1
    7167     6823     6885 1
    7168     6823     6886 1
    7169     6824     6825 1
    7170     6824     6887 1
    7171     6824     6888 1
    7172     6825     6826 1
    7173     6825     6889 1
    7174     6825     6890 1
    7175     6826     6827 1
    7176     6826     6891 1
    7177     6826     6892 1
    7178     6827     6828 1
    7179     6827     6893 1
    7180     6827     6894 1
    7181     6828     6895 1
    7182     6828     6896 1
    7183     6828     6897 1
    7184     6898     6899 1
    7185     6898     6918 1
    7186     6898     6934 1
    7187     6898     6902 1
    7188     6899     6900 1
    7189     6899     6917 1
    7190     6900     6901 1
    7191     6900     6915 1
    7192     6901     6902 1
    7193     6901     6905 1
    7194     6902     6903 1
    7195     6903     6904 1
    7196     6903     6950 1
    7197     6904     6905 1
    7198     6904     6906 1
    7199     6906     6907 1
    7200     6906     6911 1
    7201     6907     6908 1
    7202     6907     6951 1
    7203     6908     6909 1
    7204     6909     6910 1
    7205     6910     6911 1
    7206     6910     6914 1
    7207     6911     6912 1
    7208     6912     6913 1
    7209     6913     6914 1
    7210     6915     6916 1
    7211     6916     6917 1
    7212     6916     7030 1
    7213     6917     6952 1
    7214     6918     6919 1
    7215     6918     6953 1
    7216     6918     6954 1
    7217     6919     6920 1
    7218     6919     6926 1
    7219     6919     6955 1
    7220     6920     6921 1
    7221     6920     6956 1
    7222     6920     6957 1
    7223     6921     6922 1
    7224     6921     6958 1
    7225     6921     6959 1
    7226     6922     6923 1
    7227     6922     6960 1
    7228     6922     6961 1
    7229     6923     6924 1
    7230     6923     6962 1
    7231     6923     6963 1
    7232     6924     6925 1
    7233     6924     6964 1
    7234     6924     6965 1
    7235     6925     6966 1
    7236     6925     6967 1
    7237     6925     6968 1
    7238     6926     6927 1
    7239     6926     6969 1
    7240     6926     6970 1
    7241     6927     6928 1
    7242     6927     6971 1
    7243     6927     6972 1
    7244     6928     6929 1
    7245     6928     6973 1
    7246     6928     6974 1
    7247     6929     6930 1
    7248     6929     6975 1
    7249     6929     6976 1
    7250     6930     6931 1
    7251     6930     6977 1
    7252     6930     6978 1
    7253     6931     6932 1
    7254     6931     6979 1
    7255     6931     6980 1
    7256     6932     6933 1
    7257     6932     6981 1
    7258     6932     6982 1
    7259     6933     6983 1
    7260     6933     6984 1
    7261     6933     6985 1
    7262     6934     6935 1
    7263     6934     6986 1
    7264     6934     6987 1
    7265     6935     6936 1
    7266     6935     6942 1
    7267     6935     6988 1
    7268     6936     6937 1
    7269     6936     6989 1
    7270     6936     6990 1
    7271     6937     6938 1
    7272     6937     6991 1
    7273     6937     6992 1
    7274     6938     6939 1
    7275     6938     6993 1
    7276     6938     6994 1
    7277     6939     6940 1
    7278     6939     6995 1
    7279     6939     6996 1
    7280     6940     6941 1
    7281     6940     6997 1
    7282     6940     6998 1
    7283     6941     6999 1
    7284     6941     7000 1
    7285     6941     7001 1
    7286     6942     6943 1
    7287     6942     7002 1
    7288     6942     7003 1
    7289     6943     6944 1
    7290     6943     7004 1
    7291     6943     7005 1
    7292     6944     6945 1
    7293     6944     7006 1
    7294     6944     7007 1
    7295     6945     6946 1
    7296     6945     7008 1
    7297     6945     7009 1
    7298     6946     6947 1
    7299     6946     7010 1
    7300     6946     7011 1
    7301     6947     6948 1
    7302     6947     7012 1
    7303     6947     7013 1
    7304     6948     6949 1
    7305     6948     7014 1
    7306     6948     7015 1
    7307     6949     7016 1
    7308     6949     7017 1
    7309     6949     7018 1
    7310     7019     7020 1
    7311     7019     7039 1
    7312     7019     7055 1
    7313     7019     7023 1
    7314     7020     7021 1
    7315     7020     7038 1
    7316     7021     7022 1
    7317     7021     7036 1
    7318     7022     7023 1
    7319     7022     7026 1
    7320     7023     7024 1
    7321     7024     7025 1
    7322     7024     7071 1
    7323     7025     7026 1
    7324     7025     7027 1
    7325     7027     7028 1
    7326     7027     7032 1
    7327     7028     7029 1
    7328     7028     7072 1
    7329     7029     7030 1
    7330     7030     7031 1
    7331     7031     7032 1
    7332     7031     7035 1
    7333     7032     7033 1
    7334     7033     7034 1
    7335     7034     7035 1
    7336     7036     7037 1
    7337     7037     7038 1
    7338     7037     7151 1
    7339     7038     7073 1
    7340     7039     7040 1
    7341     7039     7074 1
    7342     7039     7075 1
    7343     7040     7041 1
    7344     7040     7047 1
    7345     7040     7076 1
    7346     7041     7042 1
    7347     7041     7077 1
    7348     7041     7078 1
    7349     7042     7043 1
    7350     7042     7079 1
    7351     7042     7080 1
    7352     7043     7044 1
    7353     7043     7081 1
    7354     7043     7082 1
    7355     7044     7045 1
    7356     7044     7083 1
    7357     7044     7084 1
    7358     7045     7046 1
    7359     7045     7085 1
    7360     7045     7086 1
    7361     7046     7087 1
    7362     7046     7088 1
    7363     7046     7089 1
    7364     7047     7048 1
    7365     7047     7090 1
    7366     7047     7091 1
    7367     7048     7049 1
    7368     7048     7092 1
    7369     7048     7093 1
    7370     7049     7050 1
    7371     7049     7094 1
    7372     7049     7095 1
    7373     7050     7051 1
    7374     7050     7096 1
    7375     7050     7097 1
    7376     7051     7052 1
    7377     7051     7098 1
    7378     7051     7099 1
    7379     7052     7053 1
    7380     7052     7100 1
    7381     7052     7101 1
    7382     7053     7054 1
    7383     7053     7102 1
    7384     7053     7103 1
    7385     7054     7104 1
    7386     7054     7105 1
    7387     7054     7106 1
    7388     7055     7056 1
    7389     7055     7107 1
    7390     7055     7108 1
    7391     7056     7057 1
    7392     7056     7063 1
    7393     7056     7109 1
    7394     7057     7058 1
    7395     7057     7110 1
    7396     7057     7111 1
    7397     7058     7059 1
    7398     7058     7112 1
    7399     7058     7113 1
    7400     7059     7060 1
    7401     7059     7114 1
    7402     7059     7115 1
    7403     7060     7061 1
    7404     7060     7116 1
    7405     7060     7117 1
    7406     7061     7062 1
    7407     7061     7118 1
    7408     7061     7119 1
    7409     7062     7120 1
    7410     7062     7121 1
    7411     7062     7122 1
    7412     7063     7064 1
    7413     7063     7123 1
    7414     7063     7124 1
    7415     7064     7065 1
    7416     7064     7125 1
    7417     7064     7126 1
    7418     7065     7066 1
    7419     7065     7127 1
    7420     7065     7128 1
    7421     7066     7067 1
    7422     7066     7129 1
    7423     7066     7130 1
    7424     7067     7068 1
    7425     7067     7131 1
    7426     7067     7132 1
    7427     7068     7069 1
    7428     7068     7133 1
    7429     7068     7134 1
    7430     7069     7070 1
    7431     7069     7135 1
    7432     7069     7136 1
    7433     7070     7137 1
    7434     7070     7138 1
    7435     7070     7139 1
    7436     7140     7141 1
    7437     7140     7160 1
    7438     7140     7176 1
    7439     7140     7144 1
    7440     7141     7142 1
    7441     7141     7159 1
    7442     7142     7143 1
    7443     7142     7157 1
    7444     7143     7144 1
    7445     7143     7147 1
    7446     7144     7145 1
    7447     7145     7146 1
    7448     7145     7192 1
    7449     7146     7147 1
    7450     7146     7148 1
    7451     7148     7149 1
    7452     7148     7153 1
    7453     7149     7150 1
    7454     7149     7193 1
    7455     7150     7151 1
    7456     7151     7152 1
    7457     7152     7153 1
    7458     7152     7156 1
    7459     7153     7154 1
    7460     7154     7155 1
    7461     7155     7156 1
    7462     7157     7158 1
    7463     7158     7159 1
    7464     7158     7272 1
    7465     7159     7194 1
    7466     7160     7161 1
    7467     7160     7195 1
    7468     7160     7196 1
    7469     7161     7162 1
    7470     7161     7168 1
    7471     7161     7197 1
    7472     7162     7163 1
    7473     7162     7198 1
    7474     7162     7199 1
    7475     7163     7164 1
    7476     7163     7200 1
    7477     7163     7201 1
    7478     7164     7165 1
    7479     7164     7202 1
    7480     7164     7203 1
    7481     7165     7166 1
    7482     7165     7204 1
    7483     7165     7205 1
    7484     7166     7167 1
    7485     7166     7206 1
    7486     7166     7207 1
    7487     7167     7208 1
    7488     7167     7209 1
    7489     7167     7210 1
    7490     7168     7169 1
    7491     7168     7211 1
    7492     7168     7212 1
    7493     7169     7170 1
    7494     7169     7213 1
    7495     7169     7214 1
    7496     7170     7171 1
    7497     7170     7215 1
    7498     7170     7216 1
    7499     7171     7172 1
    7500     7171     7217 1
    7501     7171     7218 1
    7502     7172     7173 1
    7503     7172     7219 1
    7504     7172     7220 1
    7505     7173     7174 1
    7506     7173     7221 1
    7507     7173     7222 1
    7508     7174     7175 1
    7509     7174     7223 1
    7510     7174     7224 1
    7511     7175     7225 1
    7512     7175     7226 1
    7513     7175     7227 1
    7514     7176     7177 1
    7515     7176     7228 1
    7516     7176     7229 1
    7517     7177     7178 1
    7518     7177     7184 1
    7519     7177     7230 1
    7520     7178     7179 1
    7521     7178     7231 1
    7522     7178     7232 1
    7523     7179     7180 1
    7524     7179     7233 1
    7525     7179     7234 1
    7526     7180     7181 1
    7527     7180     7235 1
    7528     7180     7236 1
    7529     7181     7182 1
    7530     7181     7237 1
    7531     7181     7238 1
    7532     7182     7183 1
    7533     7182     7239 1
    7534     7182     7240 1
    7535     7183     7241 1
    7536     7183     7242 1
    7537     7183     7243 1
    7538     7184     7185 1
    7539     7184     7244 1
    7540     7184     7245 1
    7541     7185     7186 1
    7542     7185     7246 1
    7543     7185     7247 1
    7544     7186     7187 1
    7545     7186     7248 1
    7546     7186     7249 1
    7547     7187     7188 1
    7548     7187     7250 1
    7549     7187     7251 1
    7550     7188     7189 1
    7551     7188     7252 1
    7552     7188     7253 1
    7553     7189     7190 1
    7554     7189     7254 1
    7555     7189     7255 1
    7556     7190     7191 1
    7557     7190     7256 1
    7558     7190     7257 1
    7559     7191     7258 1
    7560     7191     7259 1
    7561     7191     7260 1
    7562     7261     7262 1
    7563     7261     7281 1
    7564     7261     7297 1
    7565     7261     7265 1
    7566     7262     7263 1
    7567     7262     7280 1
    7568     7263     7264 1
    7569     7263     7278 1
    7570     7264     7265 1
    7571     7264     7268 1
    7572     7265     7266 1
    7573     7266     7267 1
    7574     7266     7313 1
    7575     7267     7268 1
    7576     7267     7269 1
    7577     7269     7270 1
    7578     7269     7274 1
    7579     7270     7271 1
    7580     7270     7314 1
    7581     7271     7272 1
    7582     7272     7273 1
    7583     7273     7274 1
    7584     7273     7277 1
    7585     7274     7275 1
    7586     7275     7276 1
    7587     7276     7277 1
    7588     7278     7279 1
    7589     7279     7280 1
    7590     7279     7393 1
    7591     7280     7315 1
    7592     7281     7282 1
    7593     7281     7316 1
    7594     7281     7317 1
    7595     7282     7283 1
    7596     7282     7289 1
    7597     7282     7318 1
    7598     7283     7284 1
    7599     7283     7319 1
    7600     7283     7320 1
    7601     7284     7285 1
    7602     7284     7321 1
    7603     7284     7322 1
    7604     7285     7286 1
    7605     7285     7323 1
    7606     7285     7324 1
    7607     7286     7287 1
    7608     7286     7325 1
    7609     7286     7326 1
    7610     7287     7288 1
    7611     7287     7327 1
    7612     7287     7328 1
    7613     7288     7329 1
    7614     7288     7330 1
    7615     7288     7331 1
    7616     7289     7290 1
    7617     7289     7332 1
    7618     7289     7333 1
    7619     7290     7291 1
    7620     7290     7334 1
    7621     7290     7335 1
    7622     7291     7292 1
    7623     7291     7336 1
    7624     7291     7337 1
    7625     7292     7293 1
    7626     7292     7338 1
    7627     7292     7339 1
    7628     7293     7294 1
    7629     7293     7340 1
    7630     7293     7341 1
    7631     7294     7295 1
    7632     7294     7342 1
    7633     7294     7343 1
    7634     7295     7296 1
    7635     7295     7344 1
    7636     7295     7345 1
    7637     7296     7346 1
    7638     7296     7347 1
    7639     7296     7348 1
    7640     7297     7298 1
    7641     7297     7349 1
    7642     7297     7350 1
    7643     7298     7299 1
    7644     7298     7305 1
    7645     7298     7351 1
    7646     7299     7300 1
    7647     7299     7352 1
    7648     7299     7353 1
    7649     7300     7301 1
    7650     7300     7354 1
    7651     7300     7355 1
    7652     7301     7302 1
    7653     7301     7356 1
    7654     7301     7357 1
    7655     7302     7303 1
    7656     7302     7358 1
    7657     7302     7359 1
    7658     7303     7304 1
    7659     7303     7360 1
    7660     7303     7361 1
    7661     7304     7362 1
    7662     7304     7363 1
    7663     7304     7364 1
    7664     7305     7306 1
    7665     7305     7365 1
    7666     7305     7366 1
    7667     7306     7307 1
    7668     7306     7367 1
    7669     7306     7368 1
    7670     7307     7308 1
    7671     7307     7369 1
    7672     7307     7370 1
    7673     7308     7309 1
    7674     7308     7371 1
    7675     7308     7372 1
    7676     7309     7310 1
    7677     7309     7373 1
    7678     7309     7374 1
    7679     7310     7311 1
    7680     7310     7375 1
    7681     7310     7376 1
    7682     7311     7312 1
    7683     7311     7377 1
    7684     7311     7378 1
    7685     7312     7379 1
    7686     7312     7380 1
    7687     7312     7381 1
    7688     7382     7383 1
    7689     7382     7402 1
    7690     7382     7418 1
    7691     7382     7386 1
    7692     7383     7384 1
    7693     7383     7401 1
    7694     7384     7385 1
    7695     7384     7399 1
    7696     7385     7386 1
    7697     7385     7389 1
    7698     7386     7387 1
    7699     7387     7388 1
    7700     7387     7434 1
    7701     7388     7389 1
    7702     7388     7390 1
    7703     7390     7391 1
    7704     7390     7395 1
    7705     7391     7392 1
    7706     7391     7435 1
    7707     7392     7393 1
    7708     7393     7394 1
    7709     7394     7395 1
    7710     7394     7398 1
    7711     7395     7396 1
    7712     7396     7397 1
    7713     7397     7398 1
    7714     7399     7400 1
    7715     7400     7401 1
    7716     7400     7514 1
    7717     7401     7436 1
    7718     7402     7403 1
    7719     7402     7437 1
    7720     7402     7438 1
    7721     7403     7404 1
    7722     7403     7410 1
    7723     7403     7439 1
    7724     7404     7405 1
    7725     7404     7440 1
    7726     7404     7441 1
    7727     7405     7406 1
    7728     7405     7442 1
    7729     7405     7443 1
    7730     7406     7407 1
    7731     7406     7444 1
    7732     7406     7445 1
    7733     7407     7408 1
    7734     7407     7446 1
    7735     7407     7447 1
    7736     7408     7409 1
    7737     7408     7448 1
    7738     7408     7449 1
    7739     7409     7450 1
    7740     7409     7451 1
    7741     7409     7452 1
    7742     7410     7411 1
    7743     7410     7453 1
    7744     7410     7454 1
    7745     7411     7412 1
    7746     7411     7455 1
    7747     7411     7456 1
    7748     7412     7413 1
    7749     7412     7457 1
    7750     7412     7458 1
    7751     7413     7414 1
    7752     7413     7459 1
    7753     7413     7460 1
    7754     7414     7415 1
    7755     7414     7461 1
    7756     7414     7462 1
    7757     7415     7416 1
    7758     7415     7463 1
    7759     7415     7464 1
    7760     7416     7417 1
    7761     7416     7465 1
    7762     7416     7466 1
    7763     7417     7467 1
    7764     7417     7468 1
    7765     7417     7469 1
    7766     7418     7419 1
    7767     7418     7470 1
    7768     7418     7471 1
    7769     7419     7420 1
    7770     7419     7426 1
    7771     7419     7472 1
    7772     7420     7421 1
    7773     7420     7473 1
    7774     7420     7474 1
    7775     7421     7422 1
    7776     7421     7475 1
    7777     7421     7476 1
    7778     7422     7423 1
    7779     7422     7477 1
    7780     7422     7478 1
    7781     7423     7424 1
    7782     7423     7479 1
    7783     7423     7480 1
    7784     7424     7425 1
    7785     7424     7481 1
    7786     7424     7482 1
    7787     7425     7483 1
    7788     7425     7484 1
    7789     7425     7485 1
    7790     7426     7427 1
    7791     7426     7486 1
    7792     7426     7487 1
    7793     7427     7428 1
    7794     7427     7488 1
    7795     7427     7489 1
    7796     7428     7429 1
    7797     7428     7490 1
    7798     7428     7491 1
    7799     7429     7430 1
    7800     7429     7492 1
    7801     7429     7493 1
    7802     7430     7431 1
    7803     7430     7494 1
    7804     7430     7495 1
    7805     7431     7432 1
    7806     7431     7496 1
    7807     7431     7497 1
    7808     7432     7433 1
    7809     7432     7498 1
    7810     7432     7499 1
    7811     7433     7500 1
    7812     7433     7501 1
    7813     7433     7502 1
    7814     7503     7504 1
    7815     7503     7523 1
    7816     7503     7539 1
    7817     7503     7507 1
    7818     7504     7505 1
    7819     7504     7522 1
    7820     7505     7506 1
    7821     7505     7520 1
    7822     7506     7507 1
    7823     7506     7510 1
    7824     7507     7508 1
    7825     7508     7509 1
    7826     7508     7555 1
    7827     7509     7510 1
    7828     7509     7511 1
    7829     7511     7512 1
    7830     7511     7516 1
    7831     7512     7513 1
    7832     7512     7556 1
    7833     7513     7514 1
    7834     7514     7515 1
    7835     7515     7516 1
    7836     7515     7519 1
    7837     7516     7517 1
    7838     7517     7518 1
    7839     7518     7519 1
    7840     7520     7521 1
    7841     7521     7522 1
    7842     7521     7635 1
    7843     7522     7557 1
    7844     7523     7524 1
    7845     7523     7558 1
    7846     7523     7559 1
    7847     7524     7525 1
    7848     7524     7531 1
    7849     7524     7560 1
    7850     7525     7526 1
    7851     7525     7561 1
    7852     7525     7562 1
    7853     7526     7527 1
    7854     7526     7563 1
    7855     7526     7564 1
    7856     7527     7528 1
    7857     7527     7565 1
    7858     7527     7566 1
    7859     7528     7529 1
    7860     7528     7567 1
    7861     7528     7568 1
    7862     7529     7530 1
    7863     7529     7569 1
    7864     7529     7570 1
    7865     7530     7571 1
    7866     7530     7572 1
    7867     7530     7573 1
    7868     7531     7532 1
    7869     7531     7574 1
    7870     7531     7575 1
    7871     7532     7533 1
    7872     7532     7576 1
    7873     7532     7577 1
    7874     7533     7534 1
    7875     7533     7578 1
    7876     7533     7579 1
    7877     7534     7535 1
    7878     7534     7580 1
    7879     7534     7581 1
    7880     7535     7536 1
    7881     7535     7582 1
    7882     7535     7583 1
    7883     7536     7537 1
    7884     7536     7584 1
    7885     7536     7585 1
    7886     7537     7538 1
    7887     7537     7586 1
    7888     7537     7587 1
    7889     7538     7588 1
    7890     7538     7589 1
    7891     7538     7590 1
    7892     7539     7540 1
    7893     7539     7591 1
    7894     7539     7592 1
    7895     7540     7541 1
    7896     7540     7547 1
    7897     7540     7593 1
    7898     7541     7542 1
    7899     7541     7594 1
    7900     7541     7595 1
    7901     7542     7543 1
    7902     7542     7596 1
    7903     7542     7597 1
    7904     7543     7544 1
    7905     7543     7598 1
    7906     7543     7599 1
    7907     7544     7545 1
    7908     7544     7600 1
    7909     7544     7601 1
    7910     7545     7546 1
    7911     7545     7602 1
    7912     7545     7603 1
    7913     7546     7604 1
    7914     7546     7605 1
    7915     7546     7606 1
    7916     7547     7548 1
    7917     7547     7607 1
    7918     7547     7608 1
    7919     7548     7549 1
    7920     7548     7609 1
    7921     7548     7610 1
    7922     7549     7550 1
    7923     7549     7611 1
    7924     7549     7612 1
    7925     7550     7551 1
    7926     7550     7613 1
    7927     7550     7614 1
    7928     7551     7552 1
    7929     7551     7615 1
    7930     7551     7616 1
    7931     7552     7553 1
    7932     7552     7617 1
    7933     7552     7618 1
    7934     7553     7554 1
    7935     7553     7619 1
    7936     7553     7620 1
    7937     7554     7621 1
    7938     7554     7622 1
    7939     7554     7623 1
    7940     7624     7625 1
    7941     7624     7644 1
    7942     7624     7660 1
    7943     7624     7628 1
    7944     7625     7626 1
    7945     7625     7643 1
    7946     7626     7627 1
    7947     7626     7641 1
    7948     7627     7628 1
    7949     7627     7631 1
    7950     7628     7629 1
    7951     7629     7630 1
    7952     7629     7676 1
    7953     7630     7631 1
    7954     7630     7632 1
    7955     7632     7633 1
    7956     7632     7637 1
    7957     7633     7634 1
    7958     7633     7677 1
    7959     7634     7635 1
    7960     7635     7636 1
    7961     7636     7637 1
    7962     7636     7640 1
    7963     7637     7638 1
    7964     7638     7639 1
    7965     7639     7640 1
    7966     7641     7642 1
    7967     7642     7643 1
    7968     7642     7756 1
    7969     7643     7678 1
    7970     7644     7645 1
    7971     7644     7679 1
    7972     7644     7680 1
    7973     7645     7646 1
    7974     7645     7652 1
    7975     7645     7681 1
    7976     7646     7647 1
    7977     7646     7682 1
    7978     7646     7683 1
    7979     7647     7648 1
    7980     7647     7684 1
    7981     7647     7685 1
    7982     7648     7649 1
    7983     7648     7686 1
    7984     7648     7687 1
    7985     7649     7650 1
    7986     7649     7688 1
    7987     7649     7689 1
    7988     7650     7651 1
    7989     7650     7690 1
    7990     7650     7691 1
    7991     7651     7692 1
    7992     7651     7693 1
    7993     7651     7694 1
    7994     7652     7653 1
    7995     7652     7695 1
    7996     7652     7696 1
    7997     7653     7654 1
    7998     7653     7697 1
    7999     7653     7698 1
    8000     7654     7655 1
    8001     7654     7699 1
    8002     7654     7700 1
    8003     7655     7656 1
    8004     7655     7701 1
    8005     7655     7702 1
    8006     7656     7657 1
    8007     7656     7703 1
    8008     7656     7704 1
    8009     7657     7658 1
    8010     7657     7705 1
    8011     7657     7706 1
    8012     7658     7659 1
    8013     7658     7707 1
    8014     7658     7708 1
    8015     7659     7709 1
    8016     7659     7710 1
    8017     7659     7711 1
    8018     7660     7661 1
    8019     7660     7712 1
    8020     7660     7713 1
    8021     7661     7662 1
    8022     7661     7668 1
    8023     7661     7714 1
    8024     7662     7663 1
    8025     7662     7715 1
    8026     7662     7716 1
    8027     7663     7664 1
    8028     7663     7717 1
    8029     7663     7718 1
    8030     7664     7665 1
    8031     7664     7719 1
    8032     7664     7720 1
    8033     7665     7666 1
    8034     7665     7721 1
    8035     7665     7722 1
    8036     7666     7667 1
    8037     7666     7723 1
    8038     7666     7724 1
    8039     7667     7725 1
    8040     7667     7726 1
    8041     7667     7727 1
    8042     7668     7669 1
    8043     7668     7728 1
    8044     7668     7729 1
    8045     7669     7670 1
    8046     7669     7730 1
    8047     7669     7731 1
    8048     7670     7671 1
    8049     7670     7732 1
    8050     7670     7733 1
    8051     7671     7672 1
    8052     7671     7734 1
    8053     7671     7735 1
    8054     7672     7673 1
    8055     7672     7736 1
    8056     7672     7737 1
    8057     7673     7674 1
    8058     7673     7738 1
    8059     7673     7739 1
    8060     7674     7675 1
    8061     7674     7740 1
    8062     7674     7741 1
    8063     7675     7742 1
    8064     7675     7743 1
    8065     7675     7744 1
    8066     7745     7746 1
    8067     7745     7765 1
    8068     7745     7781 1
    8069     7745     7749 1
    8070     7746     7747 1
    8071     7746     7764 1
    8072     7747     7748 1
    8073     7747     7762 1
    8074     7748     7749 1
    8075     7748     7752 1
    8076     7749     7750 1
    8077     7750     7751 1
    8078     7750     7797 1
    8079     7751     7752 1
    8080     7751     7753 1
    8081     7753     7754 1
    8082     7753     7758 1
    8083     7754     7755 1
    8084     7754     7798 1
    8085     7755     7756 1
    8086     7756     7757 1
    8087     7757     7758 1
    8088     7757     7761 1
    8089     7758     7759 1
    8090     7759     7760 1
    8091     7760     7761 1
    8092     7762     7763 1
    8093     7763     7764 1
    8094     7763     7877 1
    8095     7764     7799 1
    8096     7765     7766 1
    8097     7765     7800 1
    8098     7765     7801 1
    8099     7766     7767 1
    8100     7766     7773 1
    8101     7766     7802 1
    8102     7767     7768 1
    8103     7767     7803 1
    8104     7767     7804 1
    8105     7768     7769 1
    8106     7768     7805 1
    8107     7768     7806 1
    8108     7769     7770 1
    8109     7769     7807 1
    8110     7769     7808 1
    8111     7770     7771 1
    8112     7770     7809 1
    8113     7770     7810 1
    8114     7771     7772 1
    8115     7771     7811 1
    8116     7771     7812 1
    8117     7772     7813 1
    8118     7772     7814 1
    8119     7772     7815 1
    8120     7773     7774 1
    8121     7773     7816 1
    8122     7773     7817 1
    8123     7774     7775 1
    8124     7774     7818 1
    8125     7774     7819 1
    8126     7775     7776 1
    8127     7775     7820 1
    8128     7775     7821 1
    8129     7776     7777 1
    8130     7776     7822 1
    8131     7776     7823 1
    8132     7777     7778 1
    8133     7777     7824 1
    8134     7777     7825 1
    8135     7778     7779 1
    8136     7778     7826 1
    8137     7778     7827 1
    8138     7779     7780 1
    8139     7779     7828 1
    8140     7779     7829 1
    8141     7780     7830 1
    8142     7780     7831 1
    8143     7780     7832 1
    8144     7781     7782 1
    8145     7781     7833 1
    8146     7781     7834 1
    8147     7782     7783 1
    8148     7782     7789 1
    8149     7782     7835 1
    8150     7783     7784 1
    8151     7783     7836 1
    8152     7783     7837 1
    8153     7784     7785 1
    8154     7784     7838 1
    8155     7784     7839 1
    8156     7785     7786 1
    8157     7785     7840 1
    8158     7785     7841 1
    8159     7786     7787 1
    8160     7786     7842 1
    8161     7786     7843 1
    8162     7787     7788 1
    8163     7787     7844 1
    8164     7787     7845 1
    8165     7788     7846 1
    8166     7788     7847 1
    8167     7788     7848 1
    8168     7789     7790 1
    8169     7789     7849 1
    8170     7789     7850 1
    8171     7790     7791 1
    8172     7790     7851 1
    8173     7790     7852 1
    8174     7791     7792 1
    8175     7791     7853 1
    8176     7791     7854 1
    8177     7792     7793 1
    8178     7792     7855 1
    8179     7792     7856 1
    8180     7793     7794 1
    8181     7793     7857 1
    8182     7793     7858 1
    8183     7794     7795 1
    8184     7794     7859 1
    8185     7794     7860 1
    8186     7795     7796 1
    8187     7795     7861 1
    8188     7795     7862 1
    8189     7796     7863 1
    8190     7796     7864 1
    8191     7796     7865 1
    8192     7866     7867 1
    8193     7866     7886 1
    8194     7866     7902 1
    8195     7866     7870 1
    8196     7867     7868 1
    8197     7867     7885 1
    8198     7868     7869 1
    8199     7868     7883 1
    8200     7869     7870 1
    8201     7869     7873 1
    8202     7870     7871 1
    8203     7871     7872 1
    8204     7871     7918 1
    8205     7872     7873 1
    8206     7872     7874 1
    8207     7874     7875 1
    8208     7874     7879 1
    8209     7875     7876 1
    8210     7875     7919 1
    8211     7876     7877 1
    8212     7877     7878 1
    8213     7878     7879 1
    8214     7878     7882 1
    8215     7879     7880 1
    8216     7880     7881 1
    8217     7881     7882 1
    8218     7883     7884 1
    8219     7884     7885 1
    8220     7884     7998 1
    8221     7885     7920 1
    8222     7886     7887 1
    8223     7886     7921 1
    8224     7886     7922 1
    8225     7887     7888 1
    8226     7887     7894 1
    8227     7887     7923 1
    8228     7888     7889 1
    8229     7888     7924 1
    8230     7888     7925 1
    8231     7889     7890 1
    8232     7889     7926 1
    8233     7889     7927 1
    8234     7890     7891 1
    8235     7890     7928 1
    8236     7890     7929 1
    8237     7891     7892 1
    8238     7891     7930 1
    8239     7891     7931 1
    8240     7892     7893 1
    8241     7892     7932 1
    8242     7892     7933 1
    8243     7893     7934 1
    8244     7893     7935 1
    8245     7893     7936 1
    8246     7894     7895 1
    8247     7894     7937 1
    8248     7894     7938 1
    8249     7895     7896 1
    8250     7895     7939 1
    8251     7895     7940 1
    8252     7896     7897 1
    8253     7896     7941 1
    8254     7896     7942 1
    8255     7897     7898 1
    8256     7897     7943 1
    8257     7897     7944 1
    8258     7898     7899 1
    8259     7898     7945 1
    8260     7898     7946 1
    8261     7899     7900 1
    8262     7899     7947 1
    8263     7899     7948 1
    8264     7900     7901 1
    8265     7900     7949 1
    8266     7900     7950 1
    8267     7901     7951 1
    8268     7901     7952 1
    8269     7901     7953 1
    8270     7902     7903 1
    8271     7902     7954 1
    8272     7902     7955 1
    8273     7903     7904 1
    8274     7903     7910 1
    8275     7903     7956 1
    8276     7904     7905 1
    8277     7904     7957 1
    8278     7904     7958 1
    8279     7905     7906 1
    8280     7905     7959 1
    8281     7905     7960 1
    8282     7906     7907 1
    8283     7906     7961 1
    8284     7906     7962 1
    8285     7907     7908 1
    8286     7907     7963 1
    8287     7907     7964 1
    8288     7908     7909 1
    8289     7908     7965 1
    8290     7908     7966 1
    8291     7909     7967 1
    8292     7909     7968 1
    8293     7909     7969 1
    8294     7910     7911 1
    8295     7910     7970 1
    8296     7910     7971 1
    8297     7911     7912 1
    8298     7911     7972 1
    8299     7911     7973 1
    8300     7912     7913 1
    8301     7912     7974 1
    8302     7912     7975 1
    8303     7913     7914 1
    8304     7913     7976 1
    8305     7913     7977 1
    8306     7914     7915 1
    8307     7914     7978 1
    8308     7914     7979 1
    8309     7915     7916 1
    8310     7915     7980 1
    8311     7915     7981 1
    8312     7916     7917 1
    8313     7916     7982 1
    8314     7916     7983 1
    8315     7917     7984 1
    8316     7917     7985 1
    8317     7917     7986 1
    8318     7987     7988 1
    8319     7987     8007 1
    8320     7987     8023 1
    8321     7987     7991 1
    8322     7988     7989 1
    8323     7988     8006 1
    8324     7989     7990 1
    8325     7989     8004 1
    8326     7990     7991 1
    8327     7990     7994 1
    8328     7991     7992 1
    8329     7992     7993 1
    8330     7992     8039 1
    8331     7993     7994 1
    8332     7993     7995 1
    8333     7995     7996 1
    8334     7995     8000 1
    8335     7996     7997 1
    8336     7996     8040 1
    8337     7997     7998 1
    8338     7998     7999 1
    8339     7999     8000 1
    8340     7999     8003 1
    8341     8000     8001 1
    8342     8001     8002 1
    8343     8002     8003 1
    8344     8004     8005 1
    8345     8005     8006 1
    8346     8005     8119 1
    8347     8006     8041 1
    8348     8007     8008 1
    8349     8007     8042 1
    8350     8007     8043 1
    8351     8008     8009 1
    8352     8008     8015 1
    8353     8008     8044 1
    8354     8009     8010 1
    8355     8009     8045 1
    8356     8009     8046 1
    8357     8010     8011 1
    8358     8010     8047 1
    8359     8010     8048 1
    8360     8011     8012 1
    8361     8011     8049 1
    8362     8011     8050 1
    8363     8012     8013 1
    8364     8012     8051 1
    8365     8012     8052 1
    8366     8013     8014 1
    8367     8013     8053 1
    8368     8013     8054 1
    8369     8014     8055 1
    8370     8014     8056 1
    8371     8014     8057 1
    8372     8015     8016 1
    8373     8015     8058 1
    8374     8015     8059 1
    8375     8016     8017 1
    8376     8016     8060 1
    8377     8016     8061 1
    8378     8017     8018 1
    8379     8017     8062 1
    8380     8017     8063 1
    8381     8018     8019 1
    8382     8018     8064 1
    8383     8018     8065 1
    8384     8019     8020 1
    8385     8019     8066 1
    8386     8019     8067 1
    8387     8020     8021 1
    8388     8020     8068 1
    8389     8020     8069 1
    8390     8021     8022 1
    8391     8021     8070 1
    8392     8021     8071 1
    8393     8022     8072 1
    8394     8022     8073 1
    8395     8022     8074 1
    8396     8023     8024 1
    8397     8023     8075 1
    8398     8023     8076 1
    8399     8024     8025 1
    8400     8024     8031 1
    8401     8024     8077 1
    8402     8025     8026 1
    8403     8025     8078 1
    8404     8025     8079 1
    8405     8026     8027 1
    8406     8026     8080 1
    8407     8026     8081 1
    8408     8027     8028 1
    8409     8027     8082 1
    8410     8027     8083 1
    8411     8028     8029 1
    8412     8028     8084 1
    8413     8028     8085 1
    8414     8029     8030 1
    8415     8029     8086 1
    8416     8029     8087 1
    8417     8030     8088 1
    8418     8030     8089 1
    8419     8030     8090 1
    8420     8031     8032 1
    8421     8031     8091 1
    8422     8031     8092 1
    8423     8032     8033 1
    8424     8032     8093 1
    8425     8032     8094 1
    8426     8033     8034 1
    8427     8033     8095 1
    8428     8033     8096 1
    8429     8034     8035 1
    8430     8034     8097 1
    8431     8034     8098 1
    8432     8035     8036 1
    8433     8035     8099 1
    8434     8035     8100 1
    8435     8036     8037 1
    8436     8036     8101 1
    8437     8036     8102 1
    8438     8037     8038 1
    8439     8037     8103 1
    8440     8037     8104 1
    8441     8038     8105 1
    8442     8038     8106 1
    8443     8038     8107 1
    8444     8108     8109 1
    8445     8108     8128 1
    8446     8108     8144 1
    8447     8108     8112 1
    8448     8109     8110 1
    8449     8109     8127 1
    8450     8110     8111 1
    8451     8110     8125 1
    8452     8111     8112 1
    8453     8111     8115 1
    8454     8112     8113 1
    8455     8113     8114 1
    8456     8113     8160 1
    8457     8114     8115 1
    8458     8114     8116 1
    8459     8116     8117 1
    8460     8116     8121 1
    8461     8117     8118 1
    8462     8117     8161 1
    8463     8118     8119 1
    8464     8119     8120 1
    8465     8120     8121 1
    8466     8120     8124 1
    8467     8121     8122 1
    8468     8122     8123 1
    8469     8123     8124 1
    8470     8125     8126 1
    8471     8126     8127 1
    8472     8126     8240 1
    8473     8127     8162 1
    8474     8128     8129 1
    8475     8128     8163 1
    8476     8128     8164 1
    8477     8129     8130 1
    8478     8129     8136 1
    8479     8129     8165 1
    8480     8130     8131 1
    8481     8130     8166 1
    8482     8130     8167 1
    8483     8131     8132 1
    8484     8131     8168 1
    8485     8131     8169 1
    8486     8132     8133 1
    8487     8132     8170 1
    8488     8132     8171 1
    8489     8133     8134 1
    8490     8133     8172 1
    8491     8133     8173 1
    8492     8134     8135 1
    8493     8134     8174 1
    8494     8134     8175 1
    8495     8135     8176 1
    8496     8135     8177 1
    8497     8135     8178 1
    8498     8136     8137 1
    8499     8136     8179 1
    8500     8136     8180 1
    8501     8137     8138 1
    8502     8137     8181 1
    8503     8137     8182 1
    8504     8138     8139 1
    8505     8138     8183 1
    8506     8138     8184 1
    8507     8139     8140 1
    8508     8139     8185 1
    8509     8139     8186 1
    8510     8140     8141 1
    8511     8140     8187 1
    8512     8140     8188 1
    8513     8141     8142 1
    8514     8141     8189 1
    8515     8141     8190 1
    8516     8142     8143 1
    8517     8142     8191 1
    8518     8142     8192 1
    8519     8143     8193 1
    8520     8143     8194 1
    8521     8143     8195 1
    8522     8144     8145 1
    8523     8144     8196 1
    8524     8144     8197 1
    8525     8145     8146 1
    8526     8145     8152 1
    8527     8145     8198 1
    8528     8146     8147 1
    8529     8146     8199 1
    8530     8146     8200 1
    8531     8147     8148 1
    8532     8147     8201 1
    8533     8147     8202 1
    8534     8148     8149 1
    8535     8148     8203 1
    8536     8148     8204 1
    8537     8149     8150 1
    8538     8149     8205 1
    8539     8149     8206 1
    8540     8150     8151 1
    8541     8150     8207 1
    8542     8150     8208 1
    8543     8151     8209 1
    8544     8151     8210 1
    8545     8151     8211 1
    8546     8152     8153 1
    8547     8152     8212 1
    8548     8152     8213 1
    8549     8153     8154 1
    8550     8153     8214 1
    8551     8153     8215 1
    8552     8154     8155 1
    8553     8154     8216 1
    8554     8154     8217 1
    8555     8155     8156 1
    8556     8155     8218 1
    8557     8155     8219 1
    8558     8156     8157 1
    8559     8156     8220 1
    8560     8156     8221 1
    8561     8157     8158 1
    8562     8157     8222 1
    8563     8157     8223 1
    8564     8158     8159 1
    8565     8158     8224 1
    8566     8158     8225 1
    8567     8159     8226 1
    8568     8159     8227 1
    8569     8159     8228 1
    8570     8229     8230 1
    8571     8229     8249 1
    8572     8229     8265 1
    8573     8229     8233 1
    8574     8230     8231 1
    8575     8230     8248 1
    8576     8231     8232 1
    8577     8231     8246 1
    8578     8232     8233 1
    8579     8232     8236 1
    8580     8233     8234 1
    8581     8234     8235 1
    8582     8234     8281 1
    8583     8235     8236 1
    8584     8235     8237 1
    8585     8237     8238 1
    8586     8237     8242 1
    8587     8238     8239 1
    8588     8238     8282 1
    8589     8239     8240 1
    8590     8240     8241 1
    8591     8241     8242 1
    8592     8241     8245 1
    8593     8242     8243 1
    8594     8243     8244 1
    8595     8244     8245 1
    8596     8246     8247 1
    8597     8247     8248 1
    8598     8247     8361 1
    8599     8248     8283 1
    8600     8249     8250 1
    8601     8249     8284 1
    8602     8249     8285 1
    8603     8250     8251 1
    8604     8250     8257 1
    8605     8250     8286 1
    8606     8251     8252 1
    8607     8251     8287 1
    8608     8251     8288 1
    8609     8252     8253 1
    8610     8252     8289 1
    8611     8252     8290 1
    8612     8253     8254 1
    8613     8253     8291 1
    8614     8253     8292 1
    8615     8254     8255 1
    8616     8254     8293 1
    8617     8254     8294 1
    8618     8255     8256 1
    8619     8255     8295 1
    8620     8255     8296 1
    8621     8256     8297 1
    8622     8256     8298 1
    8623     8256     8299 1
    8624     8257     8258 1
    8625     8257     8300 1
    8626     8257     8301 1
    8627     8258     8259 1
    8628     8258     8302 1
    8629     8258     8303 1
    8630     8259     8260 1
    8631     8259     8304 1
    8632     8259     8305 1
    8633     8260     8261 1
    8634     8260     8306 1
    8635     8260     8307 1
    8636     8261     8262 1
    8637     8261     8308 1
    8638     8261     8309 1
    8639     8262     8263 1
    8640     8262     8310 1
    8641     8262     8311 1
    8642     8263     8264 1
    8643     8263     8312 1
    8644     8263     8313 1
    8645     8264     8314 1
    8646     8264     8315 1
    8647     8264     8316 1
    8648     8265     8266 1
    8649     8265     8317 1
    8650     8265     8318 1
    8651     8266     8267 1
    8652     8266     8273 1
    8653     8266     8319 1
    8654     8267     8268 1
    8655     8267     8320 1
    8656     8267     8321 1
    8657     8268     8269 1
    8658     8268     8322 1
    8659     8268     8323 1
    8660     8269     8270 1
    8661     8269     8324 1
    8662     8269     8325 1
    8663     8270     8271 1
    8664     8270     8326 1
    8665     8270     8327 1
    8666     8271     8272 1
    8667     8271     8328 1
    8668     8271     8329 1
    8669     8272     8330 1
    8670     8272     8331 1
    8671     8272     8332 1
    8672     8273     8274 1
    8673     8273     8333 1
    8674     8273     8334 1
    8675     8274     8275 1
    8676     8274     8335 1
    8677     8274     8336 1
    8678     8275     8276 1
    8679     8275     8337 1
    8680     8275     8338 1
    8681     8276     8277 1
    8682     8276     8339 1
    8683     8276     8340 1
    8684     8277     8278 1
    8685     8277     8341 1
    8686     8277     8342 1
    8687     8278     8279 1
    8688     8278     8343 1
    8689     8278     8344 1
    8690     8279     8280 1
    8691     8279     8345 1
    8692     8279     8346 1
    8693     8280     8347 1
    8694     8280     8348 1
    8695     8280     8349 1
    8696     8350     8351 1
    8697     8350     8370 1
    8698     8350     8386 1
    8699     8350     8354 1
    8700     8351     8352 1
    8701     8351     8369 1
    8702     8352     8353 1
    8703     8352     8367 1
    8704     8353     8354 1
    8705     8353     8357 1
    8706     8354     8355 1
    8707     8355     8356 1
    8708     8355     8402 1
    8709     8356     8357 1
    8710     8356     8358 1
    8711     8358     8359 1
    8712     8358     8363 1
    8713     8359     8360 1
    8714     8359     8403 1
    8715     8360     8361 1
    8716     8361     8362 1
    8717     8362     8363 1
    8718     8362     8366 1
    8719     8363     8364 1
    8720     8364     8365 1
    8721     8365     8366 1
    8722     8367     8368 1
    8723     8368     8369 1
    8724     8368     8482 1
    8725     8369     8404 1
    8726     8370     8371 1
    8727     8370     8405 1
    8728     8370     8406 1
    8729     8371     8372 1
    8730     8371     8378 1
    8731     8371     8407 1
    8732     8372     8373 1
    8733     8372     8408 1
    8734     8372     8409 1
    8735     8373     8374 1
    8736     8373     8410 1
    8737     8373     8411 1
    8738     8374     8375 1
    8739     8374     8412 1
    8740     8374     8413 1
    8741     8375     8376 1
    8742     8375     8414 1
    8743     8375     8415 1
    8744     8376     8377 1
    8745     8376     8416 1
    8746     8376     8417 1
    8747     8377     8418 1
    8748     8377     8419 1
    8749     8377     8420 1
    8750     8378     8379 1
    8751     8378     8421 1
    8752     8378     8422 1
    8753     8379     8380 1
    8754     8379     8423 1
    8755     8379     8424 1
    8756     8380     8381 1
    8757     8380     8425 1
    8758     8380     8426 1
    8759     8381     8382 1
    8760     8381     8427 1
    8761     8381     8428 1
    8762     8382     8383 1
    8763     8382     8429 1
    8764     8382     8430 1
    8765     8383     8384 1
    8766     8383     8431 1
    8767     8383     8432 1
    8768     8384     8385 1
    8769     8384     8433 1
    8770     8384     8434 1
    8771     8385     8435 1
    8772     8385     8436 1
    8773     8385     8437 1
    8774     8386     8387 1
    8775     8386     8438 1
    8776     8386     8439 1
    8777     8387     8388 1
    8778     8387     8394 1
    8779     8387     8440 1
    8780     8388     8389 1
    8781     8388     8441 1
    8782     8388     8442 1
    8783     8389     8390 1
    8784     8389     8443 1
    8785     8389     8444 1
    8786     8390     8391 1
    8787     8390     8445 1
    8788     8390     8446 1
    8789     8391     8392 1
    8790     8391     8447 1
    8791     8391     8448 1
    8792     8392     8393 1
    8793     8392     8449 1
    8794     8392     8450 1
    8795     8393     8451 1
    8796     8393     8452 1
    8797     8393     8453 1
    8798     8394     8395 1
    8799     8394     8454 1
    8800     8394     8455 1
    8801     8395     8396 1
    8802     8395     8456 1
    8803     8395     8457 1
    8804     8396     8397 1
    8805     8396     8458 1
    8806     8396     8459 1
    8807     8397     8398 1
    8808     8397     8460 1
    8809     8397     8461 1
    8810     8398     8399 1
    8811     8398     8462 1
    8812     8398     8463 1
    8813     8399     8400 1
    8814     8399     8464 1
    8815     8399     8465 1
    8816     8400     8401 1
    8817     8400     8466 1
    8818     8400     8467 1
    8819     8401     8468 1
    8820     8401     8469 1
    8821     8401     8470 1
    8822     8471     8472 1
    8823     8471     8491 1
    8824     8471     8507 1
    8825     8471     8475 1
    8826     8472     8473 1
    8827     8472     8490 1
    8828     8473     8474 1
    8829     8473     8488 1
    8830     8474     8475 1
    8831     8474     8478 1
    8832     8475     8476 1
    8833     8476     8477 1
    8834     8476     8523 1
    8835     8477     8478 1
    8836     8477     8479 1
    8837     8479     8480 1
    8838     8479     8484 1
    8839     8480     8481 1
    8840     8480     8524 1
    8841     8481     8482 1
    8842     8482     8483 1
    8843     8483     8484 1
    8844     8483     8487 1
    8845     8484     8485 1
    8846     8485     8486 1
    8847     8486     8487 1
    8848     8488     8489 1
    8849     8489     8490 1
    8850     8489     8603 1
    8851     8490     8525 1
    8852     8491     8492 1
    8853     8491     8526 1
    8854     8491     8527 1
    8855     8492     8493 1
    8856     8492     8499 1
    8857     8492     8528 1
    8858     8493     8494 1
    8859     8493     8529 1
    8860     8493     8530 1
    8861     8494     8495 1
    8862     8494     8531 1
    8863     8494     8532 1
    8864     8495     8496 1
    8865     8495     8533 1
    8866     8495     8534 1
    8867     8496     8497 1
    8868     8496     8535 1
    8869     8496     8536 1
    8870     8497     8498 1
    8871     8497     8537 1
    8872     8497     8538 1
    8873     8498     8539 1
    8874     8498     8540 1
    8875     8498     8541 1
    8876     8499     8500 1
    8877     8499     8542 1
    8878     8499     8543 1
    8879     8500     8501 1
    8880     8500     8544 1
    8881     8500     8545 1
    8882     8501     8502 1
    8883     8501     8546 1
    8884     8501     8547 1
    8885     8502     8503 1
    8886     8502     8548 1
    8887     8502     8549 1
    8888     8503     8504 1
    8889     8503     8550 1
    8890     8503     8551 1
    8891     8504     8505 1
    8892     8504     8552 1
    8893     8504     8553 1
    8894     8505     8506 1
    8895     8505     8554 1
    8896     8505     8555 1
    8897     8506     8556 1
    8898     8506     8557 1
    8899     8506     8558 1
    8900     8507     8508 1
    8901     8507     8559 1
    8902     8507     8560 1
    8903     8508     8509 1
    8904     8508     8515 1
    8905     8508     8561 1
    8906     8509     8510 1
    8907     8509     8562 1
    8908     8509     8563 1
    8909     8510     8511 1
    8910     8510     8564 1
    8911     8510     8565 1
    8912     8511     8512 1
    8913     8511     8566 1
    8914     8511     8567 1
    8915     8512     8513 1
    8916     8512     8568 1
    8917     8512     8569 1
    8918     8513     8514 1
    8919     8513     8570 1
    8920     8513     8571 1
    8921     8514     8572 1
    8922     8514     8573 1
    8923     8514     8574 1
    8924     8515     8516 1
    8925     8515     8575 1
    8926     8515     8576 1
    8927     8516     8517 1
    8928     8516     8577 1
    8929     8516     8578 1
    8930     8517     8518 1
    8931     8517     8579 1
    8932     8517     8580 1
    8933     8518     8519 1
    8934     8518     8581 1
    8935     8518     8582 1
    8936     8519     8520 1
    8937     8519     8583 1
    8938     8519     8584 1
    8939     8520     8521 1
    8940     8520     8585 1
    8941     8520     8586 1
    8942     8521     8522 1
    8943     8521     8587 1
    8944     8521     8588 1
    8945     8522     8589 1
    8946     8522     8590 1
    8947     8522     8591 1
    8948     8592     8593 1
    8949     8592     8612 1
    8950     8592     8628 1
    8951     8592     8596 1
    8952     8593     8594 1
    8953     8593     8611 1
    8954     8594     8595 1
    8955     8594     8609 1
    8956     8595     8596 1
    8957     8595     8599 1
    8958     8596     8597 1
    8959     8597     8598 1
    8960     8597     8644 1
    8961     8598     8599 1
    8962     8598     8600 1
    8963     8600     8601 1
    8964     8600     8605 1
    8965     8601     8602 1
    8966     8601     8645 1
    8967     8602     8603 1
    8968     8603     8604 1
    8969     8604     8605 1
    8970     8604     8608 1
    8971     8605     8606 1
    8972     8606     8607 1
    8973     8607     8608 1
    8974     8609     8610 1
    8975     8610     8611 1
    8976     8610     8724 1
    8977     8611     8646 1
    8978     8612     8613 1
    8979     8612     8647 1
    8980     8612     8648 1
    8981     8613     8614 1
    8982     8613     8620 1
    8983     8613     8649 1
    8984     8614     8615 1
    8985     8614     8650 1
    8986     8614     8651 1
    8987     8615     8616 1
    8988     8615     8652 1
    8989     8615     8653 1
    8990     8616     8617 1
    8991     8616     8654 1
    8992     8616     8655 1
    8993     8617     8618 1
    8994     8617     8656 1
    8995     8617     8657 1
    8996     8618     8619 1
    8997     8618     8658 1
    8998     8618     8659 1
    8999     8619     8660 1
    9000     8619     8661 1
    9001     8619     8662 1
    9002     8620     8621 1
    9003     8620     8663 1
    9004     8620     8664 1
    9005     8621     8622 1
    9006     8621     8665 1
    9007     8621     8666 1
    9008     8622     8623 1
    9009     8622     8667 1
    9010     8622     8668 1
    9011     8623     8624 1
    9012     8623     8669 1
    9013     8623     8670 1
    9014     8624     8625 1
    9015     8624     8671 1
    9016     8624     8672 1
    9017     8625     8626 1
    9018     8625     8673 1
    9019     8625     8674 1
    9020     8626     8627 1
    9021     8626     8675 1
    9022     8626     8676 1
    9023     8627     8677 1
    9024     8627     8678 1
    9025     8627     8679 1
    9026     8628     8629 1
    9027     8628     8680 1
    9028     8628     8681 1
    9029     8629     8630 1
    9030     8629     8636 1
    9031     8629     8682 1
    9032     8630     8631 1
    9033     8630     8683 1
    9034     8630     8684 1
    9035     8631     8632 1
    9036     8631     8685 1
    9037     8631     8686 1
    9038     8632     8633 1
    9039     8632     8687 1
    9040     8632     8688 1
    9041     8633     8634 1
    9042     8633     8689 1
    9043     8633     8690 1
    9044     8634     8635 1
    9045     8634     8691 1
    9046     8634     8692 1
    9047     8635     8693 1
    9048     8635     8694 1
    9049     8635     8695 1
    9050     8636     8637 1
    9051     8636     8696 1
    9052     8636     8697 1
    9053     8637     8638 1
    9054     8637     8698 1
    9055     8637     8699 1
    9056     8638     8639 1
    9057     8638     8700 1
    9058     8638     8701 1
    9059     8639     8640 1
    9060     8639     8702 1
    9061     8639     8703 1
    9062     8640     8641 1
    9063     8640     8704 1
    9064     8640     8705 1
    9065     8641     8642 1
    9066     8641     8706 1
    9067     8641     8707 1
    9068     8642     8643 1
    9069     8642     8708 1
    9070     8642     8709 1
    9071     8643     8710 1
    9072     8643     8711 1
    9073     8643     8712 1
    9074     8713     8714 1
    9075     8713     8733 1
    9076     8713     8749 1
    9077     8713     8717 1
    9078     8714     8715 1
    9079     8714     8732 1
    9080     8715     8716 1
    9081     8715     8730 1
    9082     8716     8717 1
    9083     8716     8720 1
    9084     8717     8718 1
    9085     8718     8719 1
    9086     8718     8765 1
    9087     8719     8720 1
    9088     8719     8721 1
    9089     8721     8722 1
    9090     8721     8726 1
    9091     8722     8723 1
    9092     8722     8766 1
    9093     8723     8724 1
    9094     8724     8725 1
    9095     8725     8726 1
    9096     8725     8729 1
    9097     8726     8727 1
    9098     8727     8728 1
    9099     8728     8729 1
    9100     8730     8731 1
    9101     8731     8732 1
    9102     8731     8845 1
    9103     8732     8767 1
    9104     8733     8734 1
    9105     8733     8768 1
    9106     8733     8769 1
    9107     8734     8735 1
    9108     8734     8741 1
    9109     8734     8770 1
    9110     8735     8736 1
    9111     8735     8771 1
    9112     8735     8772 1
    9113     8736     8737 1
    9114     8736     8773 1
    9115     8736     8774 1
    9116     8737     8738 1
    9117     8737     8775 1
    9118     8737     8776 1
    9119     8738     8739 1
    9120     8738     8777 1
    9121     8738     8778 1
    9122     8739     8740 1
    9123     8739     8779 1
    9124     8739     8780 1
    9125     8740     8781 1
    9126     8740     8782 1
    9127     8740     8783 1
    9128     8741     8742 1
    9129     8741     8784 1
    9130     8741     8785 1
    9131     8742     8743 1
    9132     8742     8786 1
    9133     8742     8787 1
    9134     8743     8744 1
    9135     8743     8788 1
    9136     8743     8789 1
    9137     8744     8745 1
    9138     8744     8790 1
    9139     8744     8791 1
    9140     8745     8746 1
    9141     8745     8792 1
    9142     8745     8793 1
    9143     8746     8747 1
    9144     8746     8794 1
    9145     8746     8795 1
    9146     8747     8748 1
    9147     8747     8796 1
    9148     8747     8797 1
    9149     8748     8798 1
    9150     8748     8799 1
    9151     8748     8800 1
    9152     8749     8750 1
    9153     8749     8801 1
    9154     8749     8802 1
    9155     8750     8751 1
    9156     8750     8757 1
    9157     8750     8803 1
    9158     8751     8752 1
    9159     8751     8804 1
    9160     8751     8805 1
    9161     8752     8753 1
    9162     8752     8806 1
    9163     8752     8807 1
    9164     8753     8754 1
    9165     8753     8808 1
    9166     8753     8809 1
    9167     8754     8755 1
    9168     8754     8810 1
    9169     8754     8811 1
    9170     8755     8756 1
    9171     8755     8812 1
    9172     8755     8813 1
    9173     8756     8814 1
    9174     8756     8815 1
    9175     8756     8816 1
    9176     8757     8758 1
    9177     8757     8817 1
    9178     8757     8818 1
    9179     8758     8759 1
    9180     8758     8819 1
    9181     8758     8820 1
    9182     8759     8760 1
    9183     8759     8821 1
    9184     8759     8822 1
    9185     8760     8761 1
    9186     8760     8823 1
    9187     8760     8824 1
    9188     8761     8762 1
    9189     8761     8825 1
    9190     8761     8826 1
    9191     8762     8763 1
    9192     8762     8827 1
    9193     8762     8828 1
    9194     8763     8764 1
    9195     8763     8829 1
    9196     8763     8830 1
    9197     8764     8831 1
    9198     8764     8832 1
    9199     8764     8833 1
    9200     8834     8835 1
    9201     8834     8854 1
    9202     8834     8870 1
    9203     8834     8838 1
    9204     8835     8836 1
    9205     8835     8853 1
    9206     8836     8837 1
    9207     8836     8851 1
    9208     8837     8838 1
    9209     8837     8841 1
    9210     8838     8839 1
    9211     8839     8840 1
    9212     8839     8886 1
    9213     8840     8841 1
    9214     8840     8842 1
    9215     8842     8843 1
    9216     8842     8847 1
    9217     8843     8844 1
    9218     8843     8887 1
    9219     8844     8845 1
    9220     8845     8846 1
    9221     8846     8847 1
    9222     8846     8850 1
    9223     8847     8848 1
    9224     8848     8849 1
    9225     8849     8850 1
    9226     8851     8852 1
    9227     8852     8853 1
    9228     8852     8966 1
    9229     8853     8888 1
    9230     8854     8855 1
    9231     8854     8889 1
    9232     8854     8890 1
    9233     8855     8856 1
    9234     8855     8862 1
    9235     8855     8891 1
    9236     8856     8857 1
    9237     8856     8892 1
    9238     8856     8893 1
    9239     8857     8858 1
    9240     8857     8894 1
    9241     8857     8895 1
    9242     8858     8859 1
    9243     8858     8896 1
    9244     8858     8897 1
    9245     8859     8860 1
    9246     8859     8898 1
    9247     8859     8899 1
    9248     8860     8861 1
    9249     8860     8900 1
    9250     8860     8901 1
    9251     8861     8902 1
    9252     8861     8903 1
    9253     8861     8904 1
    9254     8862     8863 1
    9255     8862     8905 1
    9256     8862     8906 1
    9257     8863     8864 1
    9258     8863     8907 1
    9259     8863     8908 1
    9260     8864     8865 1
    9261     8864     8909 1
    9262     8864     8910 1
    9263     8865     8866 1
    9264     8865     8911 1
    9265     8865     8912 1
    9266     8866     8867 1
    9267     8866     8913 1
    9268     8866     8914 1
    9269     8867     8868 1
    9270     8867     8915 1
    9271     8867     8916 1
    9272     8868     8869 1
    9273     8868     8917 1
    9274     8868     8918 1
    9275     8869     8919 1
    9276     8869     8920 1
    9277     8869     8921 1
    9278     8870     8871 1
    9279     8870     8922 1
    9280     8870     8923 1
    9281     8871     8872 1
    9282     8871     8878 1
    9283     8871     8924 1
    9284     8872     8873 1
    9285     8872     8925 1
    9286     8872     8926 1
    9287     8873     8874 1
    9288     8873     8927 1
    9289     8873     8928 1
    9290     8874     8875 1
    9291     8874     8929 1
    9292     8874     8930 1
    9293     8875     8876 1
    9294     8875     8931 1
    9295     8875     8932 1
    9296     8876     8877 1
    9297     8876     8933 1
    9298     8876     8934 1
    9299     8877     8935 1
    9300     8877     8936 1
    9301     8877     8937 1
    9302     8878     8879 1
    9303     8878     8938 1
    9304     8878     8939 1
    9305     8879     8880 1
    9306     8879     8940 1
    9307     8879     8941 1
    9308     8880     8881 1
    9309     8880     8942 1
    9310     8880     8943 1
    9311     8881     8882 1
    9312     8881     8944 1
    9313     8881     8945 1
    9314     8882     8883 1
    9315     8882     8946 1
    9316     8882     8947 1
    9317     8883     8884 1
    9318     8883     8948 1
    9319     8883     8949 1
    9320     8884     8885 1
    9321     8884     8950 1
    9322     8884     8951 1
    9323     8885     8952 1
    9324     8885     8953 1
    9325     8885     8954 1
    9326     8955     8956 1
    9327     8955     8975 1
    9328     8955     8991 1
    9329     8955     8959 1
    9330     8956     8957 1
    9331     8956     8974 1
    9332     8957     8958 1
    9333     8957     8972 1
    9334     8958     8959 1
    9335     8958     8962 1
    9336     8959     8960 1
    9337     8960     8961 1
    9338     8960     9007 1
    9339     8961     8962 1
    9340     8961     8963 1
    9341     8963     8964 1
    9342     8963     8968 1
    9343     8964     8965 1
    9344     8964     9008 1
    9345     8965     8966 1
    9346     8966     8967 1
    9347     8967     8968 1
    9348     8967     8971 1
    9349     8968     8969 1
    9350     8969     8970 1
    9351     8970     8971 1
    9352     8972     8973 1
    9353     8973     8974 1
    9354     8973     9087 1
    9355     8974     9009 1
    9356     8975     8976 1
    9357     8975     9010 1
    9358     8975     9011 1
    9359     8976     8977 1
    9360     8976     8983 1
    9361     8976     9012 1
    9362     8977     8978 1
    9363     8977     9013 1
    9364     8977     9014 1
    9365     8978     8979 1
    9366     8978     9015 1
    9367     8978     9016 1
    9368     8979     8980 1
    9369     8979     9017 1
    9370     8979     9018 1
    9371     8980     8981 1
    9372     8980     9019 1
    9373     8980     9020 1
    9374     8981     8982 1
    9375     8981     9021 1
    9376     8981     9022 1
    9377     8982     9023 1
    9378     8982     9024 1
    9379     8982     9025 1
    9380     8983     8984 1
    9381     8983     9026 1
    9382     8983     9027 1
    9383     8984     8985 1
    9384     8984     9028 1
    9385     8984     9029 1
    9386     8985     8986 1
    9387     8985     9030 1
    9388     8985     9031 1
    9389     8986     8987 1
    9390     8986     9032 1
    9391     8986     9033 1
    9392     8987     8988 1
    9393     8987     9034 1
    9394     8987     9035 1
    9395     8988     8989 1
    9396     8988     9036 1
    9397     8988     9037 1
    9398     8989     8990 1
    9399     8989     9038 1
    9400     8989     9039 1
    9401     8990     9040 1
    9402     8990     9041 1
    9403     8990     9042 1
    9404     8991     8992 1
    9405     8991     9043 1
    9406     8991     9044 1
    9407     8992     8993 1
    9408     8992     8999 1
    9409     8992     9045 1
    9410     8993     8994 1
    9411     8993     9046 1
    9412     8993     9047 1
    9413     8994     8995 1
    9414     8994     9048 1
    9415     8994     9049 1
    9416     8995     8996 1
    9417     8995     9050 1
    9418     8995     9051 1
    9419     8996     8997 1
    9420     8996     9052 1
    9421     8996     9053 1
    9422     8997     8998 1
    9423     8997     9054 1
    9424     8997     9055 1
    9425     8998     9056 1
    9426     8998     9057 1
    9427     8998     9058 1
    9428     8999     9000 1
    9429     8999     9059 1
    9430     8999     9060 1
    9431     9000     9001 1
    9432     9000     9061 1
    9433     9000     9062 1
    9434     9001     9002 1
    9435     9001     9063 1
    9436     9001     9064 1
    9437     9002     9003 1
    9438     9002     9065 1
    9439     9002     9066 1
    9440     9003     9004 1
    9441     9003     9067 1
    9442     9003     9068 1
    9443     9004     9005 1
    9444     9004     9069 1
    9445     9004     9070 1
    9446     9005     9006 1
    9447     9005     9071 1
    9448     9005     9072 1
    9449     9006     9073 1
    9450     9006     9074 1
    9451     9006     9075 1
    9452     9076     9077 1
    9453     9076     9096 1
    9454     9076     9112 1
    9455     9076     9080 1
    9456     9077     9078 1
    9457     9077     9095 1
    9458     9078     9079 1
    9459     9078     9093 1
    9460     9079     9080 1
    9461     9079     9083 1
    9462     9080     9081 1
    9463     9081     9082 1
    9464     9081     9128 1
    9465     9082     9083 1
    9466     9082     9084 1
    9467     9084     9085 1
    9468     9084     9089 1
    9469     9085     9086 1
    9470     9085     9129 1
    9471     9086     9087 1
    9472     9087     9088 1
    9473     9088     9089 1
    9474     9088     9092 1
    9475     9089     9090 1
    9476     9090     9091 1
    9477     9091     9092 1
    9478     9093     9094 1
    9479     9094     9095 1
    9480     9094     9208 1
    9481     9095     9130 1
    9482     9096     9097 1
    9483     9096     9131 1
    9484     9096     9132 1
    9485     9097     9098 1
    9486     9097     9104 1
    9487     9097     9133 1
    9488     9098     9099 1
    9489     9098     9134 1
    9490     9098     9135 1
    9491     9099     9100 1
    9492     9099     9136 1
    9493     9099     9137 1
    9494     9100     9101 1
    9495     9100     9138 1
    9496     9100     9139 1
    9497     9101     9102 1
    9498     9101     9140 1
    9499     9101     9141 1
    9500     9102     9103 1
    9501     9102     9142 1
    9502     9102     9143 1
    9503     9103     9144 1
    9504     9103     9145 1
    9505     9103     9146 1
    9506     9104     9105 1
    9507     9104     9147 1
    9508     9104     9148 1
    9509     9105     9106 1
    9510     9105     9149 1
    9511     9105     9150 1
    9512     9106     9107 1
    9513     9106     9151 1
    9514     9106     9152 1
    9515     9107     9108 1
    9516     9107     9153 1
    9517     9107     9154 1
    9518     9108     9109 1
    9519     9108     9155 1
    9520     9108     9156 1
    9521     9109     9110 1
    9522     9109     9157 1
    9523     9109     9158 1
    9524     9110     9111 1
    9525     9110     9159 1
    9526     9110     9160 1
    9527     9111     9161 1
    9528     9111     9162 1
    9529     9111     9163 1
    9530     9112     9113 1
    9531     9112     9164 1
    9532     9112     9165 1
    9533     9113     9114 1
    9534     9113     9120 1
    9535     9113     9166 1
    9536     9114     9115 1
    9537     9114     9167 1
    9538     9114     9168 1
    9539     9115     9116 1
    9540     9115     9169 1
    9541     9115     9170 1
    9542     9116     9117 1
    9543     9116     9171 1
    9544     9116     9172 1
    9545     9117     9118 1
    9546     9117     9173 1
    9547     9117     9174 1
    9548     9118     9119 1
    9549     9118     9175 1
    9550     9118     9176 1
    9551     9119     9177 1
    9552     9119     9178 1
    9553     9119     9179 1
    9554     9120     9121 1
    9555     9120     9180 1
    9556     9120     9181 1
    9557     9121     9122 1
    9558     9121     9182 1
    9559     9121     9183 1
    9560     9122     9123 1
    9561     9122     9184 1
    9562     9122     9185 1
    9563     9123     9124 1
    9564     9123     9186 1
    9565     9123     9187 1
    9566     9124     9125 1
    9567     9124     9188 1
    9568     9124     9189 1
    9569     9125     9126 1
    9570     9125     9190 1
    9571     9125     9191 1
    9572     9126     9127 1
    9573     9126     9192 1
    9574     9126     9193 1
    9575     9127     9194 1
    9576     9127     9195 1
    9577     9127     9196 1
    9578     9197     9198 1
    9579     9197     9217 1
    9580     9197     9233 1
    9581     9197     9201 1
    9582     9198     9199 1
    9583     9198     9216 1
    9584     9199     9200 1
    9585     9199     9214 1
    9586     9200     9201 1
    9587     9200     9204 1
    9588     9201     9202 1
    9589     9202     9203 1
    9590     9202     9249 1
    9591     9203     9204 1
    9592     9203     9205 1
    9593     9205     9206 1
    9594     9205     9210 1
    9595     9206     9207 1
    9596     9206     9250 1
    9597     9207     9208 1
    9598     9208     9209 1
    9599     9209     9210 1
    9600     9209     9213 1
    9601     9210     9211 1
    9602     9211     9212 1
    9603     9212     9213 1
    9604     9214     9215 1
    9605     9215     9216 1
    9606     9215     9329 1
    9607     9216     9251 1
    9608     9217     9218 1
    9609     9217     9252 1
    9610     9217     9253 1
    9611     9218     9219 1
    9612     9218     9225 1
    9613     9218     9254 1
    9614     9219     9220 1
    9615     9219     9255 1
    9616     9219     9256 1
    9617     9220     9221 1
    9618     9220     9257 1
    9619     9220     9258 1
    9620     9221     9222 1
    9621     9221     9259 1
    9622     9221     9260 1
    9623     9222     9223 1
    9624     9222     9261 1
    9625     9222     9262 1
    9626     9223     9224 1
    9627     9223     9263 1
    9628     9223     9264 1
    9629     9224     9265 1
    9630     9224     9266 1
    9631     9224     9267 1
    9632     9225     9226 1
    9633     9225     9268 1
    9634     9225     9269 1
    9635     9226     9227 1
    9636     9226     9270 1
    9637     9226     9271 1
    9638     9227     9228 1
    9639     9227     9272 1
    9640     9227     9273 1
    9641     9228     9229 1
    9642     9228     9274 1
    9643     9228     9275 1
    9644     9229     9230 1
    9645     9229     9276 1
    9646     9229     9277 1
    9647     9230     9231 1
    9648     9230     9278 1
    9649     9230     9279 1
    9650     9231     9232 1
    9651     9231     9280 1
    9652     9231     9281 1
    9653     9232     9282 1
    9654     9232     9283 1
    9655     9232     9284 1
    9656     9233     9234 1
    9657     9233     9285 1
    9658     9233     9286 1
    9659     9234     9235 1
    9660     9234     9241 1
    9661     9234     9287 1
    9662     9235     9236 1
    9663     9235     9288 1
    9664     9235     9289 1
    9665     9236     9237 1
    9666     9236     9290 1
    9667     9236     9291 1
    9668     9237     9238 1
    9669     9237     9292 1
    9670     9237     9293 1
    9671     9238     9239 1
    9672     9238     9294 1
    9673     9238     9295 1
    9674     9239     9240 1
    9675     9239     9296 1
    9676     9239     9297 1
    9677     9240     9298 1
    9678     9240     9299 1
    9679     9240     9300 1
    9680     9241     9242 1
    9681     9241     9301 1
    9682     9241     9302 1
    9683     9242     9243 1
    9684     9242     9303 1
    9685     9242     9304 1
    9686     9243     9244 1
    9687     9243     9305 1
    9688     9243     9306 1
    9689     9244     9245 1
    9690     9244     9307 1
    9691     9244     9308 1
    9692     9245     9246 1
    9693     9245     9309 1
    9694     9245     9310 1
    9695     9246     9247 1
    9696     9246     9311 1
    9697     9246     9312 1
    9698     9247     9248 1
    9699     9247     9313 1
    9700     9247     9314 1
    9701     9248     9315 1
    9702     9248     9316 1
    9703     9248     9317 1
    9704     9318     9319 1
    9705     9318     9338 1
    9706     9318     9354 1
    9707     9318     9322 1
    9708     9319     9320 1
    9709     9319     9337 1
    9710     9320     9321 1
    9711     9320     9335 1
    9712     9321     9322 1
    9713     9321     9325 1
    9714     9322     9323 1
    9715     9323     9324 1
    9716     9323     9370 1
    9717     9324     9325 1
    9718     9324     9326 1
    9719     9326     9327 1
    9720     9326     9331 1
    9721     9327     9328 1
    9722     9327     9371 1
    9723     9328     9329 1
    9724     9329     9330 1
    9725     9330     9331 1
    9726     9330     9334 1
    9727     9331     9332 1
    9728     9332     9333 1
    9729     9333     9334 1
    9730     9335     9336 1
    9731     9336     9337 1
    9732     9336     9450 1
    9733     9337     9372 1
    9734     9338     9339 1
    9735     9338     9373 1
    9736     9338     9374 1
    9737     9339     9340 1
    9738     9339     9346 1
    9739     9339     9375 1
    9740     9340     9341 1
    9741     9340     9376 1
    9742     9340     9377 1
    9743     9341     9342 1
    9744     9341     9378 1
    9745     9341     9379 1
    9746     9342     9343 1
    9747     9342     9380 1
    9748     9342     9381 1
    9749     9343     9344 1
    9750     9343     9382 1
    9751     9343     9383 1
    9752     9344     9345 1
    9753     9344     9384 1
    9754     9344     9385 1
    9755     9345     9386 1
    9756     9345     9387 1
    9757     9345     9388 1
    9758     9346     9347 1
    9759     9346     9389 1
    9760     9346     9390 1
    9761     9347     9348 1
    9762     9347     9391 1
    9763     9347     9392 1
    9764     9348     9349 1
    9765     9348     9393 1
    9766     9348     9394 1
    9767     9349     9350 1
    9768     9349     9395 1
    9769     9349     9396 1
    9770     9350     9351 1
    9771     9350     9397 1
    9772     9350     9398 1
    9773     9351     9352 1
    9774     9351     9399 1
    9775     9351     9400 1
    9776     9352     9353 1
    9777     9352     9401 1
    9778     9352     9402 1
    9779     9353     9403 1
    9780     9353     9404 1
    9781     9353     9405 1
    9782     9354     9355 1
    9783     9354     9406 1
    9784     9354     9407 1
    9785     9355     9356 1
    9786     9355     9362 1
    9787     9355     9408 1
    9788     9356     9357 1
    9789     9356     9409 1
    9790     9356     9410 1
    9791     9357     9358 1
    9792     9357     9411 1
    9793     9357     9412 1
    9794     9358     9359 1
    9795     9358     9413 1
    9796     9358     9414 1
    9797     9359     9360 1
    9798     9359     9415 1
    9799     9359     9416 1
    9800     9360     9361 1
    9801     9360     9417 1
    9802     9360     9418 1
    9803     9361     9419 1
    9804     9361     9420 1
    9805     9361     9421 1
    9806     9362     9363 1
    9807     9362     9422 1
    9808     9362     9423 1
    9809     9363     9364 1
    9810     9363     9424 1
    9811     9363     9425 1
    9812     9364     9365 1
    9813     9364     9426 1
    9814     9364     9427 1
    9815     9365     9366 1
    9816     9365     9428 1
    9817     9365     9429 1
    9818     9366     9367 1
    9819     9366     9430 1
    9820     9366     9431 1
    9821     9367     9368 1
    9822     9367     9432 1
    9823     9367     9433 1
    9824     9368     9369 1
    9825     9368     9434 1
    9826     9368     9435 1
    9827     9369     9436 1
    9828     9369     9437 1
    9829     9369     9438 1
    9830     9439     9440 1
    9831     9439     9459 1
    9832     9439     9475 1
    9833     9439     9443 1
    9834     9440     9441 1
    9835     9440     9458 1
    9836     9441     9442 1
    9837     9441     9456 1
    9838     9442     9443 1
    9839     9442     9446 1
    9840     9443     9444 1
    9841     9444     9445 1
    9842     9444     9491 1
    9843     9445     9446 1
    9844     9445     9447 1
    9845     9447     9448 1
    9846     9447     9452 1
    9847     9448     9449 1
    9848     9448     9492 1
    9849     9449     9450 1
    9850     9450     9451 1
    9851     9451     9452 1
    9852     9451     9455 1
    9853     9452     9453 1
    9854     9453     9454 1
    9855     9454     9455 1
    9856     9456     9457 1
    9857     9457     9458 1
    9858     9457     9571 1
    9859     9458     9493 1
    9860     9459     9460 1
    9861     9459     9494 1
    9862     9459     9495 1
    9863     9460     9461 1
    9864     9460     9467 1
    9865     9460     9496 1
    9866     9461     9462 1
    9867     9461     9497 1
    9868     9461     9498 1
    9869     9462     9463 1
    9870     9462     9499 1
    9871     9462     9500 1
    9872     9463     9464 1
    9873     9463     9501 1
    9874     9463     9502 1
    9875     9464     9465 1
    9876     9464     9503 1
    9877     9464     9504 1
    9878     9465     9466 1
    9879     9465     9505 1
    9880     9465     9506 1
    9881     9466     9507 1
    9882     9466     9508 1
    9883     9466     9509 1
    9884     9467     9468 1
    9885     9467     9510 1
    9886     9467     9511 1
    9887     9468     9469 1
    9888     9468     9512 1
    9889     9468     9513 1
    9890     9469     9470 1
    9891     9469     9514 1
    9892     9469     9515 1
    9893     9470     9471 1
    9894     9470     9516 1
    9895     9470     9517 1
    9896     9471     9472 1
    9897     9471     9518 1
    9898     9471     9519 1
    9899     9472     9473 1
    9900     9472     9520 1
    9901     9472     9521 1
    9902     9473     9474 1
    9903     9473     9522 1
    9904     9473     9523 1
    9905     9474     9524 1
    9906     9474     9525 1
    9907     9474     9526 1
    9908     9475     9476 1
    9909     9475     9527 1
    9910     9475     9528 1
    9911     9476     9477 1
    9912     9476     9483 1
    9913     9476     9529 1
    9914     9477     9478 1
    9915     9477     9530 1
    9916     9477     9531 1
    9917     9478     9479 1
    9918     9478     9532 1
    9919     9478     9533 1
    9920     9479     9480 1
    9921     9479     9534 1
    9922     9479     9535 1
    9923     9480     9481 1
    9924     9480     9536 1
    9925     9480     9537 1
    9926     9481     9482 1
    9927     9481     9538 1
    9928     9481     9539 1
    9929     9482     9540 1
    9930     9482     9541 1
    9931     9482     9542 1
    9932     9483     9484 1
    9933     9483     9543 1
    9934     9483     9544 1
    9935     9484     9485 1
    9936     9484     9545 1
    9937     9484     9546 1
    9938     9485     9486 1
    9939     9485     9547 1
    9940     9485     9548 1
    9941     9486     9487 1
    9942     9486     9549 1
    9943     9486     9550 1
    9944     9487     9488 1
    9945     9487     9551 1
    9946     9487     9552 1
    9947     9488     9489 1
    9948     9488     9553 1
    9949     9488     9554 1
    9950     9489     9490 1
    9951     9489     9555 1
    9952     9489     9556 1
    9953     9490     9557 1
    9954     9490     9558 1
    9955     9490     9559 1
    9956     9560     9561 1
    9957     9560     9580 1
    9958     9560     9596 1
    9959     9560     9564 1
    9960     9561     9562 1
    9961     9561     9579 1
    9962     9562     9563 1
    9963     9562     9577 1
    9964     9563     9564 1
    9965     9563     9567 1
    9966     9564     9565 1
    9967     9565     9566 1
    9968     9565     9612 1
    9969     9566     9567 1
    9970     9566     9568 1
    9971     9568     9569 1
    9972     9568     9573 1
    9973     9569     9570 1
    9974     9569     9613 1
    9975     9570     9571 1
    9976     9571     9572 1
    9977     9572     9573 1
    9978     9572     9576 1
    9979     9573     9574 1
    9980     9574     9575 1
    9981     9575     9576 1
    9982     9577     9578 1
    9983     9578     9579 1
    9984     9578     9692 1
    9985     9579     9614 1
    9986     9580     9581 1
    9987     9580     9615 1
    9988     9580     9616 1
    9989     9581     9582 1
    9990     9581     9588 1
    9991     9581     9617 1
    9992     9582     9583 1
    9993     9582     9618 1
    9994     9582     9619 1
    9995     9583     9584 1
    9996     9583     9620 1
    9997     9583     9621 1
    9998     9584     9585 1
    9999     9584     9622 1
   10000     9584     9623 1
   10001     9585     9586 1
   10002     9585     9624 1
   10003     9585     9625 1
   10004     9586     9587 1
   10005     9586     9626 1
   10006     9586     9627 1
   10007     9587     9628 1
   10008     9587     9629 1
   10009     9587     9630 1
   10010     9588     9589 1
   10011     9588     9631 1
   10012     9588     9632 1
   10013     9589     9590 1
   10014     9589     9633 1
   10015     9589     9634 1
   10016     9590     9591 1
   10017     9590     9635 1
   10018     9590     9636 1
   10019     9591     9592 1
   10020     9591     9637 1
   10021     9591     9638 1
   10022     9592     9593 1
   10023     9592     9639 1
   10024     9592     9640 1
   10025     9593     9594 1
   10026     9593     9641 1
   10027     9593     9642 1
   10028     9594     9595 1
   10029     9594     9643 1
   10030     9594     9644 1
   10031     9595     9645 1
   10032     9595     9646 1
   10033     9595     9647 1
   10034     9596     9597 1
   10035     9596     9648 1
   10036     9596     9649 1
   10037     9597     9598 1
   10038     9597     9604 1
   10039     9597     9650 1
   10040     9598     9599 1
   10041     9598     9651 1
   10042     9598     9652 1
   10043     9599     9600 1
   10044     9599     9653 1
   10045     9599     9654 1
   10046     9600     9601 1
   10047     9600     9655 1
   10048     9600     9656 1
   10049     9601     9602 1
   10050     9601     9657 1
   10051     9601     9658 1
   10052     9602     9603 1
   10053     9602     9659 1
   10054     9602     9660 1
   10055     9603     9661 1
   10056     9603     9662 1
   10057     9603     9663 1
   10058     9604     9605 1
   10059     9604     9664 1
   10060     9604     9665 1
   10061     9605     9606 1
   10062     9605     9666 1
   10063     9605     9667 1
   10064     9606     9607 1
   10065     9606     9668 1
   10066     9606     9669 1
   10067     9607     9608 1
   10068     9607     9670 1
   10069     9607     9671 1
   10070     9608     9609 1
   10071     9608     9672 1
   10072     9608     9673 1
   10073     9609     9610 1
   10074     9609     9674 1
   10075     9609     9675 1
   10076     9610     9611 1
   10077     9610     9676 1
   10078     9610     9677 1
   10079     9611     9678 1
   10080     9611     9679 1
   10081     9611     9680 1
   10082     9681     9682 1
   10083     9681     9701 1
   10084     9681     9717 1
   10085     9681     9685 1
   10086     9682     9683 1
   10087     9682     9700 1
   10088     9683     9684 1
   10089     9683     9698 1
   10090     9684     9685 1
   10091     9684     9688 1
   10092     9685     9686 1
   10093     9686     9687 1
   10094     9686     9733 1
   10095     9687     9688 1
   10096     9687     9689 1
   10097     9689     9690 1
   10098     9689     9694 1
   10099     9690     9691 1
   10100     9690     9734 1
   10101     9691     9692 1
   10102     9692     9693 1
   10103     9693     9694 1
   10104     9693     9697 1
   10105     9694     9695 1
   10106     9695     9696 1
   10107     9696     9697 1
   10108     9698     9699 1
   10109     9699     9700 1
   10110     9699     9813 1
   10111     9700     9735 1
   10112     9701     9702 1
   10113     9701     9736 1
   10114     9701     9737 1
   10115     9702     9703 1
   10116     9702     9709 1
   10117     9702     9738 1
   10118     9703     9704 1
   10119     9703     9739 1
   10120     9703     9740 1
   10121     9704     9705 1
   10122     9704     9741 1
   10123     9704     9742 1
   10124     9705     9706 1
   10125     9705     9743 1
   10126     9705     9744 1
   10127     9706     9707 1
   10128     9706     9745 1
   10129     9706     9746 1
   10130     9707     9708 1
   10131     9707     9747 1
   10132     9707     9748 1
   10133     9708     9749 1
   10134     9708     9750 1
   10135     9708     9751 1
   10136     9709     9710 1
   10137     9709     9752 1
   10138     9709     9753 1
   10139     9710     9711 1
   10140     9710     9754 1
   10141     9710     9755 1
   10142     9711     9712 1
   10143     9711     9756 1
   10144     9711     9757 1
   10145     9712     9713 1
   10146     9712     9758 1
   10147     9712     9759 1
   10148     9713     9714 1
   10149     9713     9760 1
   10150     9713     9761 1
   10151     9714     9715 1
   10152     9714     9762 1
   10153     9714     9763 1
   10154     9715     9716 1
   10155     9715     9764 1
   10156     9715     9765 1
   10157     9716     9766 1
   10158     9716     9767 1
   10159     9716     9768 1
   10160     9717     9718 1
   10161     9717     9769 1
   10162     9717     9770 1
   10163     9718     9719 1
   10164     9718     9725 1
   10165     9718     9771 1
   10166     9719     9720 1
   10167     9719     9772 1
   10168     9719     9773 1
   10169     9720     9721 1
   10170     9720     9774 1
   10171     9720     9775 1
   10172     9721     9722 1
   10173     9721     9776 1
   10174     9721     9777 1
   10175     9722     9723 1
   10176     9722     9778 1
   10177     9722     9779 1
   10178     9723     9724 1
   10179     9723     9780 1
   10180     9723     9781 1
   10181     9724     9782 1
   10182     9724     9783 1
   10183     9724     9784 1
   10184     9725     9726 1
   10185     9725     9785 1
   10186     9725     9786 1
   10187     9726     9727 1
   10188     9726     9787 1
   10189     9726     9788 1
   10190     9727     9728 1
   10191     9727     9789 1
   10192     9727     9790 1
   10193     9728     9729 1
   10194     9728     9791 1
   10195     9728     9792 1
   10196     9729     9730 1
   10197     9729     9793 1
   10198     9729     9794 1
   10199     9730     9731 1
   10200     9730     9795 1
   10201     9730     9796 1
   10202     9731     9732 1
   10203     9731     9797 1
   10204     9731     9798 1
   10205     9732     9799 1
   10206     9732     9800 1
   10207     9732     9801 1
   10208     9802     9803 1
   10209     9802     9822 1
   10210     9802     9838 1
   10211     9802     9806 1
   10212     9803     9804 1
   10213     9803     9821 1
   10214     9804     9805 1
   10215     9804     9819 1
   10216     9805     9806 1
   10217     9805     9809 1
   10218     9806     9807 1
   10219     9807     9808 1
   10220     9807     9854 1
   10221     9808     9809 1
   10222     9808     9810 1
   10223     9810     9811 1
   10224     9810     9815 1
   10225     9811     9812 1
   10226     9811     9855 1
   10227     9812     9813 1
   10228     9813     9814 1
   10229     9814     9815 1
   10230     9814     9818 1
   10231     9815     9816 1
   10232     9816     9817 1
   10233     9817     9818 1
   10234     9819     9820 1
   10235     9820     9821 1
   10236     9820     9934 1
   10237     9821     9856 1
   10238     9822     9823 1
   10239     9822     9857 1
   10240     9822     9858 1
   10241     9823     9824 1
   10242     9823     9830 1
   10243     9823     9859 1
   10244     9824     9825 1
   10245     9824     9860 1
   10246     9824     9861 1
   10247     9825     9826 1
   10248     9825     9862 1
   10249     9825     9863 1
   10250     9826     9827 1
   10251     9826     9864 1
   10252     9826     9865 1
   10253     9827     9828 1
   10254     9827     9866 1
   10255     9827     9867 1
   10256     9828     9829 1
   10257     9828     9868 1
   10258     9828     9869 1
   10259     9829     9870 1
   10260     9829     9871 1
   10261     9829     9872 1
   10262     9830     9831 1
   10263     9830     9873 1
   10264     9830     9874 1
   10265     9831     9832 1
   10266     9831     9875 1
   10267     9831     9876 1
   10268     9832     9833 1
   10269     9832     9877 1
   10270     9832     9878 1
   10271     9833     9834 1
   10272     9833     9879 1
   10273     9833     9880 1
   10274     9834     9835 1
   10275     9834     9881 1
   10276     9834     9882 1
   10277     9835     9836 1
   10278     9835     9883 1
   10279     9835     9884 1
   10280     9836     9837 1
   10281     9836     9885 1
   10282     9836     9886 1
   10283     9837     9887 1
   10284     9837     9888 1
   10285     9837     9889 1
   10286     9838     9839 1
   10287     9838     9890 1
   10288     9838     9891 1
   10289     9839     9840 1
   10290     9839     9846 1
   10291     9839     9892 1
   10292     9840     9841 1
   10293     9840     9893 1
   10294     9840     9894 1
   10295     9841     9842 1
   10296     9841     9895 1
   10297     9841     9896 1
   10298     9842     9843 1
   10299     9842     9897 1
   10300     9842     9898 1
   10301     9843     9844 1
   10302     9843     9899 1
   10303     9843     9900 1
   10304     9844     9845 1
   10305     9844     9901 1
   10306     9844     9902 1
   10307     9845     9903 1
   10308     9845     9904 1
   10309     9845     9905 1
   10310     9846     9847 1
   10311     9846     9906 1
   10312     9846     9907 1
   10313     9847     9848 1
   10314     9847     9908 1
   10315     9847     9909 1
   10316     9848     9849 1
   10317     9848     9910 1
   10318     9848     9911 1
   10319     9849     9850 1
   10320     9849     9912 1
   10321     9849     9913 1
   10322     9850     9851 1
   10323     9850     9914 1
   10324     9850     9915 1
   10325     9851     9852 1
   10326     9851     9916 1
   10327     9851     9917 1
   10328     9852     9853 1
   10329     9852     9918 1
   10330     9852     9919 1
   10331     9853     9920 1
   10332     9853     9921 1
   10333     9853     9922 1
   10334     9923     9924 1
   10335     9923     9943 1
   10336     9923     9959 1
   10337     9923     9927 1
   10338     9924     9925 1
   10339     9924     9942 1
   10340     9925     9926 1
   10341     9925     9940 1
   10342     9926     9927 1
   10343     9926     9930 1
   10344     9927     9928 1
   10345     9928     9929 1
   10346     9928     9975 1
   10347     9929     9930 1
   10348     9929     9931 1
   10349     9931     9932 1
   10350     9931     9936 1
   10351     9932     9933 1
   10352     9932     9976 1
   10353     9933     9934 1
   10354     9934     9935 1
   10355     9935     9936 1
   10356     9935     9939 1
   10357     9936     9937 1
   10358     9937     9938 1
   10359     9938     9939 1
   10360     9940     9941 1
   10361     9941     9942 1
   10362     9941    10055 1
   10363     9942     9977 1
   10364     9943     9944 1
   10365     9943     9978 1
   10366     9943     9979 1
   10367     9944     9945 1
   10368     9944     9951 1
   10369     9944     9980 1
   10370     9945     9946 1
   10371     9945     9981 1
   10372     9945     9982 1
   10373     9946     9947 1
   10374     9946     9983 1
   10375     9946     9984 1
   10376     9947     9948 1
   10377     9947     9985 1
   10378     9947     9986 1
   10379     9948     9949 1
   10380     9948     9987 1
   10381     9948     9988 1
   10382     9949     9950 1
   10383     9949     9989 1
   10384     9949     9990 1
   10385     9950     9991 1
   10386     9950     9992 1
   10387     9950     9993 1
   10388     9951     9952 1
   10389     9951     9994 1
   10390     9951     9995 1
   10391     9952     9953 1
   10392     9952     9996 1
   10393     9952     9997 1
   10394     9953     9954 1
   10395     9953     9998 1
   10396     9953     9999 1
   10397     9954     9955 1
   10398     9954    10000 1
   10399     9954    10001 1
   10400     9955     9956 1
   10401     9955    10002 1
   10402     9955    10003 1
   10403     9956     9957 1
   10404     9956    10004 1
   10405     9956    10005 1
   10406     9957     9958 1
   10407     9957    10006 1
   10408     9957    10007 1
   10409     9958    10008 1
   10410     9958    10009 1
   10411     9958    10010 1
   10412     9959     9960 1
   10413     9959    10011 1
   10414     9959    10012 1
   10415     9960     9961 1
   10416     9960     9967 1
   10417     9960    10013 1
   10418     9961     9962 1
   10419     9961    10014 1
   10420     9961    10015 1
   10421     9962     9963 1
   10422     9962    10016 1
   10423     9962    10017 1
   10424     9963     9964 1
   10425     9963    10018 1
   10426     9963    10019 1
   10427     9964     9965 1
   10428     9964    10020 1
   10429     9964    10021 1
   10430     9965     9966 1
   10431     9965    10022 1
   10432     9965    10023 1
   10433     9966    10024 1
   10434     9966    10025 1
   10435     9966    10026 1
   10436     9967     9968 1
   10437     9967    10027 1
   10438     9967    10028 1
   10439     9968     9969 1
   10440     9968    10029 1
   10441     9968    10030 1
   10442     9969     9970 1
   10443     9969    10031 1
   10444     9969    10032 1
   10445     9970     9971 1
   10446     9970    10033 1
   10447     9970    10034 1
   10448     9971     9972 1
   10449     9971    10035 1
   10450     9971    10036 1
   10451     9972     9973 1
   10452     9972    10037 1
   10453     9972    10038 1
   10454     9973     9974 1
   10455     9973    10039 1
   10456     9973    10040 1
   10457     9974    10041 1
   10458     9974    10042 1
   10459     9974    10043 1
   10460    10044    10045 1
   10461    10044    10064 1
   10462    10044    10080 1
   10463    10044    10048 1
   10464    10045    10046 1
   10465    10045    10063 1
   10466    10046    10047 1
   10467    10046    10061 1
   10468    10047    10048 1
   10469    10047    10051 1
   10470    10048    10049 1
   10471    10049    10050 1
   10472    10049    10096 1
   10473    10050    10051 1
   10474    10050    10052 1
   10475    10052    10053 1
   10476    10052    10057 1
   10477    10053    10054 1
   10478    10053    10097 1
   10479    10054    10055 1
   10480    10055    10056 1
   10481    10056    10057 1
   10482    10056    10060 1
   10483    10057    10058 1
   10484    10058    10059 1
   10485    10059    10060 1
   10486    10061    10062 1
   10487    10062    10063 1
   10488    10062    10176 1
   10489    10063    10098 1
   10490    10064    10065 1
   10491    10064    10099 1
   10492    10064    10100 1
   10493    10065    10066 1
   10494    10065    10072 1
   10495    10065    10101 1
   10496    10066    10067 1
   10497    10066    10102 1
   10498    10066    10103 1
   10499    10067    10068 1
   10500    10067    10104 1
   10501    10067    10105 1
   10502    10068    10069 1
   10503    10068    10106 1
   10504    10068    10107 1
   10505    10069    10070 1
   10506    10069    10108 1
   10507    10069    10109 1
   10508    10070    10071 1
   10509    10070    10110 1
   10510    10070    10111 1
   10511    10071    10112 1
   10512    10071    10113 1
   10513    10071    10114 1
   10514    10072    10073 1
   10515    10072    10115 1
   10516    10072    10116 1
   10517    10073    10074 1
   10518    10073    10117 1
   10519    10073    10118 1
   10520    10074    10075 1
   10521    10074    10119 1
   10522    10074    10120 1
   10523    10075    10076 1
   10524    10075    10121 1
   10525    10075    10122 1
   10526    10076    10077 1
   10527    10076    10123 1
   10528    10076    10124 1
   10529    10077    10078 1
   10530    10077    10125 1
   10531    10077    10126 1
   10532    10078    10079 1
   10533    10078    10127 1
   10534    10078    10128 1
   10535    10079    10129 1
   10536    10079    10130 1
   10537    10079    10131 1
   10538    10080    10081 1
   10539    10080    10132 1
   10540    10080    10133 1
   10541    10081    10082 1
   10542    10081    10088 1
   10543    10081    10134 1
   10544    10082    10083 1
   10545    10082    10135 1
   10546    10082    10136 1
   10547    10083    10084 1
   10548    10083    10137 1
   10549    10083    10138 1
   10550    10084    10085 1
   10551    10084    10139 1
   10552    10084    10140 1
   10553    10085    10086 1
   10554    10085    10141 1
   10555    10085    10142 1
   10556    10086    10087 1
   10557    10086    10143 1
   10558    10086    10144 1
   10559    10087    10145 1
   10560    10087    10146 1
   10561    10087    10147 1
   10562    10088    10089 1
   10563    10088    10148 1
   10564    10088    10149 1
   10565    10089    10090 1
   10566    10089    10150 1
   10567    10089    10151 1
   10568    10090    10091 1
   10569    10090    10152 1
   10570    10090    10153 1
   10571    10091    10092 1
   10572    10091    10154 1
   10573    10091    10155 1
   10574    10092    10093 1
   10575    10092    10156 1
   10576    10092    10157 1
   10577    10093    10094 1
   10578    10093    10158 1
   10579    10093    10159 1
   10580    10094    10095 1
   10581    10094    10160 1
   10582    10094    10161 1
   10583    10095    10162 1
   10584    10095    10163 1
   10585    10095    10164 1
   10586    10165    10166 1
   10587    10165    10185 1
   10588    10165    10201 1
   10589    10165    10169 1
   10590    10166    10167 1
   10591    10166    10184 1
   10592    10167    10168 1
   10593    10167    10182 1
   10594    10168    10169 1
   10595    10168    10172 1
   10596    10169    10170 1
   10597    10170    10171 1
   10598    10170    10217 1
   10599    10171    10172 1
   10600    10171    10173 1
   10601    10173    10174 1
   10602    10173    10178 1
   10603    10174    10175 1
   10604    10174    10218 1
   10605    10175    10176 1
   10606    10176    10177 1
   10607    10177    10178 1
   10608    10177    10181 1
   10609    10178    10179 1
   10610    10179    10180 1
   10611    10180    10181 1
   10612    10182    10183 1
   10613    10183    10184 1
   10614    10183    10297 1
   10615    10184    10219 1
   10616    10185    10186 1
   10617    10185    10220 1
   10618    10185    10221 1
   10619    10186    10187 1
   10620    10186    10193 1
   10621    10186    10222 1
   10622    10187    10188 1
   10623    10187    10223 1
   10624    10187    10224 1
   10625    10188    10189 1
   10626    10188    10225 1
   10627    10188    10226 1
   10628    10189    10190 1
   10629    10189    10227 1
   10630    10189    10228 1
   10631    10190    10191 1
   10632    10190    10229 1
   10633    10190    10230 1
   10634    10191    10192 1
   10635    10191    10231 1
   10636    10191    10232 1
   10637    10192    10233 1
   10638    10192    10234 1
   10639    10192    10235 1
   10640    10193    10194 1
   10641    10193    10236 1
   10642    10193    10237 1
   10643    10194    10195 1
   10644    10194    10238 1
   10645    10194    10239 1
   10646    10195    10196 1
   10647    10195    10240 1
   10648    10195    10241 1
   10649    10196    10197 1
   10650    10196    10242 1
   10651    10196    10243 1
   10652    10197    10198 1
   10653    10197    10244 1
   10654    10197    10245 1
   10655    10198    10199 1
   10656    10198    10246 1
   10657    10198    10247 1
   10658    10199    10200 1
   10659    10199    10248 1
   10660    10199    10249 1
   10661    10200    10250 1
   10662    10200    10251 1
   10663    10200    10252 1
   10664    10201    10202 1
   10665    10201    10253 1
   10666    10201    10254 1
   10667    10202    10203 1
   10668    10202    10209 1
   10669    10202    10255 1
   10670    10203    10204 1
   10671    10203    10256 1
   10672    10203    10257 1
   10673    10204    10205 1
   10674    10204    10258 1
   10675    10204    10259 1
   10676    10205    10206 1
   10677    10205    10260 1
   10678    10205    10261 1
   10679    10206    10207 1
   10680    10206    10262 1
   10681    10206    10263 1
   10682    10207    10208 1
   10683    10207    10264 1
   10684    10207    10265 1
   10685    10208    10266 1
   10686    10208    10267 1
   10687    10208    10268 1
   10688    10209    10210 1
   10689    10209    10269 1
   10690    10209    10270 1
   10691    10210    10211 1
   10692    10210    10271 1
   10693    10210    10272 1
   10694    10211    10212 1
   10695    10211    10273 1
   10696    10211    10274 1
   10697    10212    10213 1
   10698    10212    10275 1
   10699    10212    10276 1
   10700    10213    10214 1
   10701    10213    10277 1
   10702    10213    10278 1
   10703    10214    10215 1
   10704    10214    10279 1
   10705    10214    10280 1
   10706    10215    10216 1
   10707    10215    10281 1
   10708    10215    10282 1
   10709    10216    10283 1
   10710    10216    10284 1
   10711    10216    10285 1
   10712    10286    10287 1
   10713    10286    10306 1
   10714    10286    10322 1
   10715    10286    10290 1
   10716    10287    10288 1
   10717    10287    10305 1
   10718    10288    10289 1
   10719    10288    10303 1
   10720    10289    10290 1
   10721    10289    10293 1
   10722    10290    10291 1
   10723    10291    10292 1
   10724    10291    10338 1
   10725    10292    10293 1
   10726    10292    10294 1
   10727    10294    10295 1
   10728    10294    10299 1
   10729    10295    10296 1
   10730    10295    10339 1
   10731    10296    10297 1
   10732    10297    10298 1
   10733    10298    10299 1
   10734    10298    10302 1
   10735    10299    10300 1
   10736    10300    10301 1
   10737    10301    10302 1
   10738    10303    10304 1
   10739    10304    10305 1
   10740    10304    10418 1
   10741    10305    10340 1
   10742    10306    10307 1
   10743    10306    10341 1
   10744    10306    10342 1
   10745    10307    10308 1
   10746    10307    10314 1
   10747    10307    10343 1
   10748    10308    10309 1
   10749    10308    10344 1
   10750    10308    10345 1
   10751    10309    10310 1
   10752    10309    10346 1
   10753    10309    10347 1
   10754    10310    10311 1
   10755    10310    10348 1
   10756    10310    10349 1
   10757    10311    10312 1
   10758    10311    10350 1
   10759    10311    10351 1
   10760    10312    10313 1
   10761    10312    10352 1
   10762    10312    10353 1
   10763    10313    10354 1
   10764    10313    10355 1
   10765    10313    10356 1
   10766    10314    10315 1
   10767    10314    10357 1
   10768    10314    10358 1
   10769    10315    10316 1
   10770    10315    10359 1
   10771    10315    10360 1
   10772    10316    10317 1
   10773    10316    10361 1
   10774    10316    10362 1
   10775    10317    10318 1
   10776    10317    10363 1
   10777    10317    10364 1
   10778    10318    10319 1
   10779    10318    10365 1
   10780    10318    10366 1
   10781    10319    10320 1
   10782    10319    10367 1
   10783    10319    10368 1
   10784    10320    10321 1
   10785    10320    10369 1
   10786    10320    10370 1
   10787    10321    10371 1
   10788    10321    10372 1
   10789    10321    10373 1
   10790    10322    10323 1
   10791    10322    10374 1
   10792    10322    10375 1
   10793    10323    10324 1
   10794    10323    10330 1
   10795    10323    10376 1
   10796    10324    10325 1
   10797    10324    10377 1
   10798    10324    10378 1
   10799    10325    10326 1
   10800    10325    10379 1
   10801    10325    10380 1
   10802    10326    10327 1
   10803    10326    10381 1
   10804    10326    10382 1
   10805    10327    10328 1
   10806    10327    10383 1
   10807    10327    10384 1
   10808    10328    10329 1
   10809    10328    10385 1
   10810    10328    10386 1
   10811    10329    10387 1
   10812    10329    10388 1
   10813    10329    10389 1
   10814    10330    10331 1
   10815    10330    10390 1
   10816    10330    10391 1
   10817    10331    10332 1
   10818    10331    10392 1
   10819    10331    10393 1
   10820    10332    10333 1
   10821    10332    10394 1
   10822    10332    10395 1
   10823    10333    10334 1
   10824    10333    10396 1
   10825    10333    10397 1
   10826    10334    10335 1
   10827    10334    10398 1
   10828    10334    10399 1
   10829    10335    10336 1
   10830    10335    10400 1
   10831    10335    10401 1
   10832    10336    10337 1
   10833    10336    10402 1
   10834    10336    10403 1
   10835    10337    10404 1
   10836    10337    10405 1
   10837    10337    10406 1
   10838    10407    10408 1
   10839    10407    10427 1
   10840    10407    10443 1
   10841    10407    10411 1
   10842    10408    10409 1
   10843    10408    10426 1
   10844    10409    10410 1
   10845    10409    10424 1
   10846    10410    10411 1
   10847    10410    10414 1
   10848    10411    10412 1
   10849    10412    10413 1
   10850    10412    10459 1
   10851    10413    10414 1
   10852    10413    10415 1
   10853    10415    10416 1
   10854    10415    10420 1
   10855    10416    10417 1
   10856    10416    10460 1
   10857    10417    10418 1
   10858    10418    10419 1
   10859    10419    10420 1
   10860    10419    10423 1
   10861    10420    10421 1
   10862    10421    10422 1
   10863    10422    10423 1
   10864    10424    10425 1
   10865    10425    10426 1
   10866    10425    10539 1
   10867    10426    10461 1
   10868    10427    10428 1
   10869    10427    10462 1
   10870    10427    10463 1
   10871    10428    10429 1
   10872    10428    10435 1
   10873    10428    10464 1
   10874    10429    10430 1
   10875    10429    10465 1
   10876    10429    10466 1
   10877    10430    10431 1
   10878    10430    10467 1
   10879    10430    10468 1
   10880    10431    10432 1
   10881    10431    10469 1
   10882    10431    10470 1
   10883    10432    10433 1
   10884    10432    10471 1
   10885    10432    10472 1
   10886    10433    10434 1
   10887    10433    10473 1
   10888    10433    10474 1
   10889    10434    10475 1
   10890    10434    10476 1
   10891    10434    10477 1
   10892    10435    10436 1
   10893    10435    10478 1
   10894    10435    10479 1
   10895    10436    10437 1
   10896    10436    10480 1
   10897    10436    10481 1
   10898    10437    10438 1
   10899    10437    10482 1
   10900    10437    10483 1
   10901    10438    10439 1
   10902    10438    10484 1
   10903    10438    10485 1
   10904    10439    10440 1
   10905    10439    10486 1
   10906    10439    10487 1
   10907    10440    10441 1
   10908    10440    10488 1
   10909    10440    10489 1
   10910    10441    10442 1
   10911    10441    10490 1
   10912    10441    10491 1
   10913    10442    10492 1
   10914    10442    10493 1
   10915    10442    10494 1
   10916    10443    10444 1
   10917    10443    10495 1
   10918    10443    10496 1
   10919    10444    10445 1
   10920    10444    10451 1
   10921    10444    10497 1
   10922    10445    10446 1
   10923    10445    10498 1
   10924    10445    10499 1
   10925    10446    10447 1
   10926    10446    10500 1
   10927    10446    10501 1
   10928    10447    10448 1
   10929    10447    10502 1
   10930    10447    10503 1
   10931    10448    10449 1
   10932    10448    10504 1
   10933    10448    10505 1
   10934    10449    10450 1
   10935    10449    10506 1
   10936    10449    10507 1
   10937    10450    10508 1
   10938    10450    10509 1
   10939    10450    10510 1
   10940    10451    10452 1
   10941    10451    10511 1
   10942    10451    10512 1
   10943    10452    10453 1
   10944    10452    10513 1
   10945    10452    10514 1
   10946    10453    10454 1
   10947    10453    10515 1
   10948    10453    10516 1
   10949    10454    10455 1
   10950    10454    10517 1
   10951    10454    10518 1
   10952    10455    10456 1
   10953    10455    10519 1
   10954    10455    10520 1
   10955    10456    10457 1
   10956    10456    10521 1
   10957    10456    10522 1
   10958    10457    10458 1
   10959    10457    10523 1
   10960    10457    10524 1
   10961    10458    10525 1
   10962    10458    10526 1
   10963    10458    10527 1
   10964    10528    10529 1
   10965    10528    10548 1
   10966    10528    10564 1
   10967    10528    10532 1
   10968    10529    10530 1
   10969    10529    10547 1
   10970    10530    10531 1
   10971    10530    10545 1
   10972    10531    10532 1
   10973    10531    10535 1
   10974    10532    10533 1
   10975    10533    10534 1
   10976    10533    10580 1
   10977    10534    10535 1
   10978    10534    10536 1
   10979    10536    10537 1
   10980    10536    10541 1
   10981    10537    10538 1
   10982    10537    10581 1
   10983    10538    10539 1
   10984    10539    10540 1
   10985    10540    10541 1
   10986    10540    10544 1
   10987    10541    10542 1
   10988    10542    10543 1
   10989    10543    10544 1
   10990    10545    10546 1
   10991    10546    10547 1
   10992    10546    10660 1
   10993    10547    10582 1
   10994    10548    10549 1
   10995    10548    10583 1
   10996    10548    10584 1
   10997    10549    10550 1
   10998    10549    10556 1
   10999    10549    10585 1
   11000    10550    10551 1
   11001    10550    10586 1
   11002    10550    10587 1
   11003    10551    10552 1
   11004    10551    10588 1
   11005    10551    10589 1
   11006    10552    10553 1
   11007    10552    10590 1
   11008    10552    10591 1
   11009    10553    10554 1
   11010    10553    10592 1
   11011    10553    10593 1
   11012    10554    10555 1
   11013    10554    10594 1
   11014    10554    10595 1
   11015    10555    10596 1
   11016    10555    10597 1
   11017    10555    10598 1
   11018    10556    10557 1
   11019    10556    10599 1
   11020    10556    10600 1
   11021    10557    10558 1
   11022    10557    10601 1
   11023    10557    10602 1
   11024    10558    10559 1
   11025    10558    10603 1
   11026    10558    10604 1
   11027    10559    10560 1
   11028    10559    10605 1
   11029    10559    10606 1
   11030    10560    10561 1
   11031    10560    10607 1
   11032    10560    10608 1
   11033    10561    10562 1
   11034    10561    10609 1
   11035    10561    10610 1
   11036    10562    10563 1
   11037    10562    10611 1
   11038    10562    10612 1
   11039    10563    10613 1
   11040    10563    10614 1
   11041    10563    10615 1
   11042    10564    10565 1
   11043    10564    10616 1
   11044    10564    10617 1
   11045    10565    10566 1
   11046    10565    10572 1
   11047    10565    10618 1
   11048    10566    10567 1
   11049    10566    10619 1
   11050    10566    10620 1
   11051    10567    10568 1
   11052    10567    10621 1
   11053    10567    10622 1
   11054    10568    10569 1
   11055    10568    10623 1
   11056    10568    10624 1
   11057    10569    10570 1
   11058    10569    10625 1
   11059    10569    10626 1
   11060    10570    10571 1
   11061    10570    10627 1
   11062    10570    10628 1
   11063    10571    10629 1
   11064    10571    10630 1
   11065    10571    10631 1
   11066    10572    10573 1
   11067    10572    10632 1
   11068    10572    10633 1
   11069    10573    10574 1
   11070    10573    10634 1
   11071    10573    10635 1
   11072    10574    10575 1
   11073    10574    10636 1
   11074    10574    10637 1
   11075    10575    10576 1
   11076    10575    10638 1
   11077    10575    10639 1
   11078    10576    10577 1
   11079    10576    10640 1
   11080    10576    10641 1
   11081    10577    10578 1
   11082    10577    10642 1
   11083    10577    10643 1
   11084    10578    10579 1
   11085    10578    10644 1
   11086    10578    10645 1
   11087    10579    10646 1
   11088    10579    10647 1
   11089    10579    10648 1
   11090    10649    10650 1
   11091    10649    10669 1
   11092    10649    10685 1
   11093    10649    10653 1
   11094    10650    10651 1
   11095    10650    10668 1
   11096    10651    10652 1
   11097    10651    10666 1
   11098    10652    10653 1
   11099    10652    10656 1
   11100    10653    10654 1
   11101    10654    10655 1
   11102    10654    10701 1
   11103    10655    10656 1
   11104    10655    10657 1
   11105    10657    10658 1
   11106    10657    10662 1
   11107    10658    10659 1
   11108    10658    10702 1
   11109    10659    10660 1
   11110    10660    10661 1
   11111    10661    10662 1
   11112    10661    10665 1
   11113    10662    10663 1
   11114    10663    10664 1
   11115    10664    10665 1
   11116    10666    10667 1
   11117    10667    10668 1
   11118    10667    10781 1
   11119    10668    10703 1
   11120    10669    10670 1
   11121    10669    10704 1
   11122    10669    10705 1
   11123    10670    10671 1
   11124    10670    10677 1
   11125    10670    10706 1
   11126    10671    10672 1
   11127    10671    10707 1
   11128    10671    10708 1
   11129    10672    10673 1
   11130    10672    10709 1
   11131    10672    10710 1
   11132    10673    10674 1
   11133    10673    10711 1
   11134    10673    10712 1
   11135    10674    10675 1
   11136    10674    10713 1
   11137    10674    10714 1
   11138    10675    10676 1
   11139    10675    10715 1
   11140    10675    10716 1
   11141    10676    10717 1
   11142    10676    10718 1
   11143    10676    10719 1
   11144    10677    10678 1
   11145    10677    10720 1
   11146    10677    10721 1
   11147    10678    10679 1
   11148    10678    10722 1
   11149    10678    10723 1
   11150    10679    10680 1
   11151    10679    10724 1
   11152    10679    10725 1
   11153    10680    10681 1
   11154    10680    10726 1
   11155    10680    10727 1
   11156    10681    10682 1
   11157    10681    10728 1
   11158    10681    10729 1
   11159    10682    10683 1
   11160    10682    10730 1
   11161    10682    10731 1
   11162    10683    10684 1
   11163    10683    10732 1
   11164    10683    10733 1
   11165    10684    10734 1
   11166    10684    10735 1
   11167    10684    10736 1
   11168    10685    10686 1
   11169    10685    10737 1
   11170    10685    10738 1
   11171    10686    10687 1
   11172    10686    10693 1
   11173    10686    10739 1
   11174    10687    10688 1
   11175    10687    10740 1
   11176    10687    10741 1
   11177    10688    10689 1
   11178    10688    10742 1
   11179    10688    10743 1
   11180    10689    10690 1
   11181    10689    10744 1
   11182    10689    10745 1
   11183    10690    10691 1
   11184    10690    10746 1
   11185    10690    10747 1
   11186    10691    10692 1
   11187    10691    10748 1
   11188    10691    10749 1
   11189    10692    10750 1
   11190    10692    10751 1
   11191    10692    10752 1
   11192    10693    10694 1
   11193    10693    10753 1
   11194    10693    10754 1
   11195    10694    10695 1
   11196    10694    10755 1
   11197    10694    10756 1
   11198    10695    10696 1
   11199    10695    10757 1
   11200    10695    10758 1
   11201    10696    10697 1
   11202    10696    10759 1
   11203    10696    10760 1
   11204    10697    10698 1
   11205    10697    10761 1
   11206    10697    10762 1
   11207    10698    10699 1
   11208    10698    10763 1
   11209    10698    10764 1
   11210    10699    10700 1
   11211    10699    10765 1
   11212    10699    10766 1
   11213    10700    10767 1
   11214    10700    10768 1
   11215    10700    10769 1
   11216    10770    10771 1
   11217    10770    10790 1
   11218    10770    10806 1
   11219    10770    10774 1
   11220    10771    10772 1
   11221    10771    10789 1
   11222    10772    10773 1
   11223    10772    10787 1
   11224    10773    10774 1
   11225    10773    10777 1
   11226    10774    10775 1
   11227    10775    10776 1
   11228    10775    10822 1
   11229    10776    10777 1
   11230    10776    10778 1
   11231    10778    10779 1
   11232    10778    10783 1
   11233    10779    10780 1
   11234    10779    10823 1
   11235    10780    10781 1
   11236    10781    10782 1
   11237    10782    10783 1
   11238    10782    10786 1
   11239    10783    10784 1
   11240    10784    10785 1
   11241    10785    10786 1
   11242    10787    10788 1
   11243    10788    10789 1
   11244    10788    10902 1
   11245    10789    10824 1
   11246    10790    10791 1
   11247    10790    10825 1
   11248    10790    10826 1
   11249    10791    10792 1
   11250    10791    10798 1
   11251    10791    10827 1
   11252    10792    10793 1
   11253    10792    10828 1
   11254    10792    10829 1
   11255    10793    10794 1
   11256    10793    10830 1
   11257    10793    10831 1
   11258    10794    10795 1
   11259    10794    10832 1
   11260    10794    10833 1
   11261    10795    10796 1
   11262    10795    10834 1
   11263    10795    10835 1
   11264    10796    10797 1
   11265    10796    10836 1
   11266    10796    10837 1
   11267    10797    10838 1
   11268    10797    10839 1
   11269    10797    10840 1
   11270    10798    10799 1
   11271    10798    10841 1
   11272    10798    10842 1
   11273    10799    10800 1
   11274    10799    10843 1
   11275    10799    10844 1
   11276    10800    10801 1
   11277    10800    10845 1
   11278    10800    10846 1
   11279    10801    10802 1
   11280    10801    10847 1
   11281    10801    10848 1
   11282    10802    10803 1
   11283    10802    10849 1
   11284    10802    10850 1
   11285    10803    10804 1
   11286    10803    10851 1
   11287    10803    10852 1
   11288    10804    10805 1
   11289    10804    10853 1
   11290    10804    10854 1
   11291    10805    10855 1
   11292    10805    10856 1
   11293    10805    10857 1
   11294    10806    10807 1
   11295    10806    10858 1
   11296    10806    10859 1
   11297    10807    10808 1
   11298    10807    10814 1
   11299    10807    10860 1
   11300    10808    10809 1
   11301    10808    10861 1
   11302    10808    10862 1
   11303    10809    10810 1
   11304    10809    10863 1
   11305    10809    10864 1
   11306    10810    10811 1
   11307    10810    10865 1
   11308    10810    10866 1
   11309    10811    10812 1
   11310    10811    10867 1
   11311    10811    10868 1
   11312    10812    10813 1
   11313    10812    10869 1
   11314    10812    10870 1
   11315    10813    10871 1
   11316    10813    10872 1
   11317    10813    10873 1
   11318    10814    10815 1
   11319    10814    10874 1
   11320    10814    10875 1
   11321    10815    10816 1
   11322    10815    10876 1
   11323    10815    10877 1
   11324    10816    10817 1
   11325    10816    10878 1
   11326    10816    10879 1
   11327    10817    10818 1
   11328    10817    10880 1
   11329    10817    10881 1
   11330    10818    10819 1
   11331    10818    10882 1
   11332    10818    10883 1
   11333    10819    10820 1
   11334    10819    10884 1
   11335    10819    10885 1
   11336    10820    10821 1
   11337    10820    10886 1
   11338    10820    10887 1
   11339    10821    10888 1
   11340    10821    10889 1
   11341    10821    10890 1
   11342    10891    10892 1
   11343    10891    10911 1
   11344    10891    10927 1
   11345    10891    10895 1
   11346    10892    10893 1
   11347    10892    10910 1
   11348    10893    10894 1
   11349    10893    10908 1
   11350    10894    10895 1
   11351    10894    10898 1
   11352    10895    10896 1
   11353    10896    10897 1
   11354    10896    10943 1
   11355    10897    10898 1
   11356    10897    10899 1
   11357    10899    10900 1
   11358    10899    10904 1
   11359    10900    10901 1
   11360    10900    10944 1
   11361    10901    10902 1
   11362    10902    10903 1
   11363    10903    10904 1
   11364    10903    10907 1
   11365    10904    10905 1
   11366    10905    10906 1
   11367    10906    10907 1
   11368    10908    10909 1
   11369    10909    10910 1
   11370    10909    11023 1
   11371    10910    10945 1
   11372    10911    10912 1
   11373    10911    10946 1
   11374    10911    10947 1
   11375    10912    10913 1
   11376    10912    10919 1
   11377    10912    10948 1
   11378    10913    10914 1
   11379    10913    10949 1
   11380    10913    10950 1
   11381    10914    10915 1
   11382    10914    10951 1
   11383    10914    10952 1
   11384    10915    10916 1
   11385    10915    10953 1
   11386    10915    10954 1
   11387    10916    10917 1
   11388    10916    10955 1
   11389    10916    10956 1
   11390    10917    10918 1
   11391    10917    10957 1
   11392    10917    10958 1
   11393    10918    10959 1
   11394    10918    10960 1
   11395    10918    10961 1
   11396    10919    10920 1
   11397    10919    10962 1
   11398    10919    10963 1
   11399    10920    10921 1
   11400    10920    10964 1
   11401    10920    10965 1
   11402    10921    10922 1
   11403    10921    10966 1
   11404    10921    10967 1
   11405    10922    10923 1
   11406    10922    10968 1
   11407    10922    10969 1
   11408    10923    10924 1
   11409    10923    10970 1
   11410    10923    10971 1
   11411    10924    10925 1
   11412    10924    10972 1
   11413    10924    10973 1
   11414    10925    10926 1
   11415    10925    10974 1
   11416    10925    10975 1
   11417    10926    10976 1
   11418    10926    10977 1
   11419    10926    10978 1
   11420    10927    10928 1
   11421    10927    10979 1
   11422    10927    10980 1
   11423    10928    10929 1
   11424    10928    10935 1
   11425    10928    10981 1
   11426    10929    10930 1
   11427    10929    10982 1
   11428    10929    10983 1
   11429    10930    10931 1
   11430    10930    10984 1
   11431    10930    10985 1
   11432    10931    10932 1
   11433    10931    10986 1
   11434    10931    10987 1
   11435    10932    10933 1
   11436    10932    10988 1
   11437    10932    10989 1
   11438    10933    10934 1
   11439    10933    10990 1
   11440    10933    10991 1
   11441    10934    10992 1
   11442    10934    10993 1
   11443    10934    10994 1
   11444    10935    10936 1
   11445    10935    10995 1
   11446    10935    10996 1
   11447    10936    10937 1
   11448    10936    10997 1
   11449    10936    10998 1
   11450    10937    10938 1
   11451    10937    10999 1
   11452    10937    11000 1
   11453    10938    10939 1
   11454    10938    11001 1
   11455    10938    11002 1
   11456    10939    10940 1
   11457    10939    11003 1
   11458    10939    11004 1
   11459    10940    10941 1
   11460    10940    11005 1
   11461    10940    11006 1
   11462    10941    10942 1
   11463    10941    11007 1
   11464    10941    11008 1
   11465    10942    11009 1
   11466    10942    11010 1
   11467    10942    11011 1
   11468    11012    11013 1
   11469    11012    11032 1
   11470    11012    11048 1
   11471    11012    11016 1
   11472    11013    11014 1
   11473    11013    11031 1
   11474    11014    11015 1
   11475    11014    11029 1
   11476    11015    11016 1
   11477    11015    11019 1
   11478    11016    11017 1
   11479    11017    11018 1
   11480    11017    11064 1
   11481    11018    11019 1
   11482    11018    11020 1
   11483    11020    11021 1
   11484    11020    11025 1
   11485    11021    11022 1
   11486    11021    11065 1
   11487    11022    11023 1
   11488    11023    11024 1
   11489    11024    11025 1
   11490    11024    11028 1
   11491    11025    11026 1
   11492    11026    11027 1
   11493    11027    11028 1
   11494    11029    11030 1
   11495    11030    11031 1
   11496    11030    11144 1
   11497    11031    11066 1
   11498    11032    11033 1
   11499    11032    11067 1
   11500    11032    11068 1
   11501    11033    11034 1
   11502    11033    11040 1
   11503    11033    11069 1
   11504    11034    11035 1
   11505    11034    11070 1
   11506    11034    11071 1
   11507    11035    11036 1
   11508    11035    11072 1
   11509    11035    11073 1
   11510    11036    11037 1
   11511    11036    11074 1
   11512    11036    11075 1
   11513    11037    11038 1
   11514    11037    11076 1
   11515    11037    11077 1
   11516    11038    11039 1
   11517    11038    11078 1
   11518    11038    11079 1
   11519    11039    11080 1
   11520    11039    11081 1
   11521    11039    11082 1
   11522    11040    11041 1
   11523    11040    11083 1
   11524    11040    11084 1
   11525    11041    11042 1
   11526    11041    11085 1
   11527    11041    11086 1
   11528    11042    11043 1
   11529    11042    11087 1
   11530    11042    11088 1
   11531    11043    11044 1
   11532    11043    11089 1
   11533    11043    11090 1
   11534    11044    11045 1
   11535    11044    11091 1
   11536    11044    11092 1
   11537    11045    11046 1
   11538    11045    11093 1
   11539    11045    11094 1
   11540    11046    11047 1
   11541    11046    11095 1
   11542    11046    11096 1
   11543    11047    11097 1
   11544    11047    11098 1
   11545    11047    11099 1
   11546    11048    11049 1
   11547    11048    11100 1
   11548    11048    11101 1
   11549    11049    11050 1
   11550    11049    11056 1
   11551    11049    11102 1
   11552    11050    11051 1
   11553    11050    11103 1
   11554    11050    11104 1
   11555    11051    11052 1
   11556    11051    11105 1
   11557    11051    11106 1
   11558    11052    11053 1
   11559    11052    11107 1
   11560    11052    11108 1
   11561    11053    11054 1
   11562    11053    11109 1
   11563    11053    11110 1
   11564    11054    11055 1
   11565    11054    11111 1
   11566    11054    11112 1
   11567    11055    11113 1
   11568    11055    11114 1
   11569    11055    11115 1
   11570    11056    11057 1
   11571    11056    11116 1
   11572    11056    11117 1
   11573    11057    11058 1
   11574    11057    11118 1
   11575    11057    11119 1
   11576    11058    11059 1
   11577    11058    11120 1
   11578    11058    11121 1
   11579    11059    11060 1
   11580    11059    11122 1
   11581    11059    11123 1
   11582    11060    11061 1
   11583    11060    11124 1
   11584    11060    11125 1
   11585    11061    11062 1
   11586    11061    11126 1
   11587    11061    11127 1
   11588    11062    11063 1
   11589    11062    11128 1
   11590    11062    11129 1
   11591    11063    11130 1
   11592    11063    11131 1
   11593    11063    11132 1
   11594    11133    11134 1
   11595    11133    11153 1
   11596    11133    11169 1
   11597    11133    11137 1
   11598    11134    11135 1
   11599    11134    11152 1
   11600    11135    11136 1
   11601    11135    11150 1
   11602    11136    11137 1
   11603    11136    11140 1
   11604    11137    11138 1
   11605    11138    11139 1
   11606    11138    11185 1
   11607    11139    11140 1
   11608    11139    11141 1
   11609    11141    11142 1
   11610    11141    11146 1
   11611    11142    11143 1
   11612    11142    11186 1
   11613    11143    11144 1
   11614    11144    11145 1
   11615    11145    11146 1
   11616    11145    11149 1
   11617    11146    11147 1
   11618    11147    11148 1
   11619    11148    11149 1
   11620    11150    11151 1
   11621    11151    11152 1
   11622    11151    11265 1
   11623    11152    11187 1
   11624    11153    11154 1
   11625    11153    11188 1
   11626    11153    11189 1
   11627    11154    11155 1
   11628    11154    11161 1
   11629    11154    11190 1
   11630    11155    11156 1
   11631    11155    11191 1
   11632    11155    11192 1
   11633    11156    11157 1
   11634    11156    11193 1
   11635    11156    11194 1
   11636    11157    11158 1
   11637    11157    11195 1
   11638    11157    11196 1
   11639    11158    11159 1
   11640    11158    11197 1
   11641    11158    11198 1
   11642    11159    11160 1
   11643    11159    11199 1
   11644    11159    11200 1
   11645    11160    11201 1
   11646    11160    11202 1
   11647    11160    11203 1
   11648    11161    11162 1
   11649    11161    11204 1
   11650    11161    11205 1
   11651    11162    11163 1
   11652    11162    11206 1
   11653    11162    11207 1
   11654    11163    11164 1
   11655    11163    11208 1
   11656    11163    11209 1
   11657    11164    11165 1
   11658    11164    11210 1
   11659    11164    11211 1
   11660    11165    11166 1
   11661    11165    11212 1
   11662    11165    11213 1
   11663    11166    11167 1
   11664    11166    11214 1
   11665    11166    11215 1
   11666    11167    11168 1
   11667    11167    11216 1
   11668    11167    11217 1
   11669    11168    11218 1
   11670    11168    11219 1
   11671    11168    11220 1
   11672    11169    11170 1
   11673    11169    11221 1
   11674    11169    11222 1
   11675    11170    11171 1
   11676    11170    11177 1
   11677    11170    11223 1
   11678    11171    11172 1
   11679    11171    11224 1
   11680    11171    11225 1
   11681    11172    11173 1
   11682    11172    11226 1
   11683    11172    11227 1
   11684    11173    11174 1
   11685    11173    11228 1
   11686    11173    11229 1
   11687    11174    11175 1
   11688    11174    11230 1
   11689    11174    11231 1
   11690    11175    11176 1
   11691    11175    11232 1
   11692    11175    11233 1
   11693    11176    11234 1
   11694    11176    11235 1
   11695    11176    11236 1
   11696    11177    11178 1
   11697    11177    11237 1
   11698    11177    11238 1
   11699    11178    11179 1
   11700    11178    11239 1
   11701    11178    11240 1
   11702    11179    11180 1
   11703    11179    11241 1
   11704    11179    11242 1
   11705    11180    11181 1
   11706    11180    11243 1
   11707    11180    11244 1
   11708    11181    11182 1
   11709    11181    11245 1
   11710    11181    11246 1
   11711    11182    11183 1
   11712    11182    11247 1
   11713    11182    11248 1
   11714    11183    11184 1
   11715    11183    11249 1
   11716    11183    11250 1
   11717    11184    11251 1
   11718    11184    11252 1
   11719    11184    11253 1
   11720    11254    11255 1
   11721    11254    11274 1
   11722    11254    11290 1
   11723    11254    11258 1
   11724    11255    11256 1
   11725    11255    11273 1
   11726    11256    11257 1
   11727    11256    11271 1
   11728    11257    11258 1
   11729    11257    11261 1
   11730    11258    11259 1
   11731    11259    11260 1
   11732    11259    11306 1
   11733    11260    11261 1
   11734    11260    11262 1
   11735    11262    11263 1
   11736    11262    11267 1
   11737    11263    11264 1
   11738    11263    11307 1
   11739    11264    11265 1
   11740    11265    11266 1
   11741    11266    11267 1
   11742    11266    11270 1
   11743    11267    11268 1
   11744    11268    11269 1
   11745    11269    11270 1
   11746    11271    11272 1
   11747    11272    11273 1
   11748    11272    11386 1
   11749    11273    11308 1
   11750    11274    11275 1
   11751    11274    11309 1
   11752    11274    11310 1
   11753    11275    11276 1
   11754    11275    11282 1
   11755    11275    11311 1
   11756    11276    11277 1
   11757    11276    11312 1
   11758    11276    11313 1
   11759    11277    11278 1
   11760    11277    11314 1
   11761    11277    11315 1
   11762    11278    11279 1
   11763    11278    11316 1
   11764    11278    11317 1
   11765    11279    11280 1
   11766    11279    11318 1
   11767    11279    11319 1
   11768    11280    11281 1
   11769    11280    11320 1
   11770    11280    11321 1
   11771    11281    11322 1
   11772    11281    11323 1
   11773    11281    11324 1
   11774    11282    11283 1
   11775    11282    11325 1
   11776    11282    11326 1
   11777    11283    11284 1
   11778    11283    11327 1
   11779    11283    11328 1
   11780    11284    11285 1
   11781    11284    11329 1
   11782    11284    11330 1
   11783    11285    11286 1
   11784    11285    11331 1
   11785    11285    11332 1
   11786    11286    11287 1
   11787    11286    11333 1
   11788    11286    11334 1
   11789    11287    11288 1
   11790    11287    11335 1
   11791    11287    11336 1
   11792    11288    11289 1
   11793    11288    11337 1
   11794    11288    11338 1
   11795    11289    11339 1
   11796    11289    11340 1
   11797    11289    11341 1
   11798    11290    11291 1
   11799    11290    11342 1
   11800    11290    11343 1
   11801    11291    11292 1
   11802    11291    11298 1
   11803    11291    11344 1
   11804    11292    11293 1
   11805    11292    11345 1
   11806    11292    11346 1
   11807    11293    11294 1
   11808    11293    11347 1
   11809    11293    11348 1
   11810    11294    11295 1
   11811    11294    11349 1
   11812    11294    11350 1
   11813    11295    11296 1
   11814    11295    11351 1
   11815    11295    11352 1
   11816    11296    11297 1
   11817    11296    11353 1
   11818    11296    11354 1
   11819    11297    11355 1
   11820    11297    11356 1
   11821    11297    11357 1
   11822    11298    11299 1
   11823    11298    11358 1
   11824    11298    11359 1
   11825    11299    11300 1
   11826    11299    11360 1
   11827    11299    11361 1
   11828    11300    11301 1
   11829    11300    11362 1
   11830    11300    11363 1
   11831    11301    11302 1
   11832    11301    11364 1
   11833    11301    11365 1
   11834    11302    11303 1
   11835    11302    11366 1
   11836    11302    11367 1
   11837    11303    11304 1
   11838    11303    11368 1
   11839    11303    11369 1
   11840    11304    11305 1
   11841    11304    11370 1
   11842    11304    11371 1
   11843    11305    11372 1
   11844    11305    11373 1
   11845    11305    11374 1
   11846    11375    11376 1
   11847    11375    11395 1
   11848    11375    11411 1
   11849    11375    11379 1
   11850    11376    11377 1
   11851    11376    11394 1
   11852    11377    11378 1
   11853    11377    11392 1
   11854    11378    11379 1
   11855    11378    11382 1
   11856    11379    11380 1
   11857    11380    11381 1
   11858    11380    11427 1
   11859    11381    11382 1
   11860    11381    11383 1
   11861    11383    11384 1
   11862    11383    11388 1
   11863    11384    11385 1
   11864    11384    11428 1
   11865    11385    11386 1
   11866    11386    11387 1
   11867    11387    11388 1
   11868    11387    11391 1
   11869    11388    11389 1
   11870    11389    11390 1
   11871    11390    11391 1
   11872    11392    11393 1
   11873    11393    11394 1
   11874    11393    11507 1
   11875    11394    11429 1
   11876    11395    11396 1
   11877    11395    11430 1
   11878    11395    11431 1
   11879    11396    11397 1
   11880    11396    11403 1
   11881    11396    11432 1
   11882    11397    11398 1
   11883    11397    11433 1
   11884    11397    11434 1
   11885    11398    11399 1
   11886    11398    11435 1
   11887    11398    11436 1
   11888    11399    11400 1
   11889    11399    11437 1
   11890    11399    11438 1
   11891    11400    11401 1
   11892    11400    11439 1
   11893    11400    11440 1
   11894    11401    11402 1
   11895    11401    11441 1
   11896    11401    11442 1
   11897    11402    11443 1
   11898    11402    11444 1
   11899    11402    11445 1
   11900    11403    11404 1
   11901    11403    11446 1
   11902    11403    11447 1
   11903    11404    11405 1
   11904    11404    11448 1
   11905    11404    11449 1
   11906    11405    11406 1
   11907    11405    11450 1
   11908    11405    11451 1
   11909    11406    11407 1
   11910    11406    11452 1
   11911    11406    11453 1
   11912    11407    11408 1
   11913    11407    11454 1
   11914    11407    11455 1
   11915    11408    11409 1
   11916    11408    11456 1
   11917    11408    11457 1
   11918    11409    11410 1
   11919    11409    11458 1
   11920    11409    11459 1
   11921    11410    11460 1
   11922    11410    11461 1
   11923    11410    11462 1
   11924    11411    11412 1
   11925    11411    11463 1
   11926    11411    11464 1
   11927    11412    11413 1
   11928    11412    11419 1
   11929    11412    11465 1
   11930    11413    11414 1
   11931    11413    11466 1
   11932    11413    11467 1
   11933    11414    11415 1
   11934    11414    11468 1
   11935    11414    11469 1
   11936    11415    11416 1
   11937    11415    11470 1
   11938    11415    11471 1
   11939    11416    11417 1
   11940    11416    11472 1
   11941    11416    11473 1
   11942    11417    11418 1
   11943    11417    11474 1
   11944    11417    11475 1
   11945    11418    11476 1
   11946    11418    11477 1
   11947    11418    11478 1
   11948    11419    11420 1
   11949    11419    11479 1
   11950    11419    11480 1
   11951    11420    11421 1
   11952    11420    11481 1
   11953    11420    11482 1
   11954    11421    11422 1
   11955    11421    11483 1
   11956    11421    11484 1
   11957    11422    11423 1
   11958    11422    11485 1
   11959    11422    11486 1
   11960    11423    11424 1
   11961    11423    11487 1
   11962    11423    11488 1
   11963    11424    11425 1
   11964    11424    11489 1
   11965    11424    11490 1
   11966    11425    11426 1
   11967    11425    11491 1
   11968    11425    11492 1
   11969    11426    11493 1
   11970    11426    11494 1
   11971    11426    11495 1
   11972    11496    11497 1
   11973    11496    11516 1
   11974    11496    11532 1
   11975    11496    11500 1
   11976    11497    11498 1
   11977    11497    11515 1
   11978    11498    11499 1
   11979    11498    11513 1
   11980    11499    11500 1
   11981    11499    11503 1
   11982    11500    11501 1
   11983    11501    11502 1
   11984    11501    11548 1
   11985    11502    11503 1
   11986    11502    11504 1
   11987    11504    11505 1
   11988    11504    11509 1
   11989    11505    11506 1
   11990    11505    11549 1
   11991    11506    11507 1
   11992    11507    11508 1
   11993    11508    11509 1
   11994    11508    11512 1
   11995    11509    11510 1
   11996    11510    11511 1
   11997    11511    11512 1
   11998    11513    11514 1
   11999    11514    11515 1
   12000    11514    11628 1
   12001    11515    11550 1
   12002    11516    11517 1
   12003    11516    11551 1
   12004    11516    11552 1
   12005    11517    11518 1
   12006    11517    11524 1
   12007    11517    11553 1
   12008    11518    11519 1
   12009    11518    11554 1
   12010    11518    11555 1
   12011    11519    11520 1
   12012    11519    11556 1
   12013    11519    11557 1
   12014    11520    11521 1
   12015    11520    11558 1
   12016    11520    11559 1
   12017    11521    11522 1
   12018    11521    11560 1
   12019    11521    11561 1
   12020    11522    11523 1
   12021    11522    11562 1
   12022    11522    11563 1
   12023    11523    11564 1
   12024    11523    11565 1
   12025    11523    11566 1
   12026    11524    11525 1
   12027    11524    11567 1
   12028    11524    11568 1
   12029    11525    11526 1
   12030    11525    11569 1
   12031    11525    11570 1
   12032    11526    11527 1
   12033    11526    11571 1
   12034    11526    11572 1
   12035    11527    11528 1
   12036    11527    11573 1
   12037    11527    11574 1
   12038    11528    11529 1
   12039    11528    11575 1
   12040    11528    11576 1
   12041    11529    11530 1
   12042    11529    11577 1
   12043    11529    11578 1
   12044    11530    11531 1
   12045    11530    11579 1
   12046    11530    11580 1
   12047    11531    11581 1
   12048    11531    11582 1
   12049    11531    11583 1
   12050    11532    11533 1
   12051    11532    11584 1
   12052    11532    11585 1
   12053    11533    11534 1
   12054    11533    11540 1
   12055    11533    11586 1
   12056    11534    11535 1
   12057    11534    11587 1
   12058    11534    11588 1
   12059    11535    11536 1
   12060    11535    11589 1
   12061    11535    11590 1
   12062    11536    11537 1
   12063    11536    11591 1
   12064    11536    11592 1
   12065    11537    11538 1
   12066    11537    11593 1
   12067    11537    11594 1
   12068    11538    11539 1
   12069    11538    11595 1
   12070    11538    11596 1
   12071    11539    11597 1
   12072    11539    11598 1
   12073    11539    11599 1
   12074    11540    11541 1
   12075    11540    11600 1
   12076    11540    11601 1
   12077    11541    11542 1
   12078    11541    11602 1
   12079    11541    11603 1
   12080    11542    11543 1
   12081    11542    11604 1
   12082    11542    11605 1
   12083    11543    11544 1
   12084    11543    11606 1
   12085    11543    11607 1
   12086    11544    11545 1
   12087    11544    11608 1
   12088    11544    11609 1
   12089    11545    11546 1
   12090    11545    11610 1
   12091    11545    11611 1
   12092    11546    11547 1
   12093    11546    11612 1
   12094    11546    11613 1
   12095    11547    11614 1
   12096    11547    11615 1
   12097    11547    11616 1
   12098    11617    11618 1
   12099    11617    11637 1
   12100    11617    11653 1
   12101    11617    11621 1
   12102    11618    11619 1
   12103    11618    11636 1
   12104    11619    11620 1
   12105    11619    11634 1
   12106    11620    11621 1
   12107    11620    11624 1
   12108    11621    11622 1
   12109    11622    11623 1
   12110    11622    11669 1
   12111    11623    11624 1
   12112    11623    11625 1
   12113    11625    11626 1
   12114    11625    11630 1
   12115    11626    11627 1
   12116    11626    11670 1
   12117    11627    11628 1
   12118    11628    11629 1
   12119    11629    11630 1
   12120    11629    11633 1
   12121    11630    11631 1
   12122    11631    11632 1
   12123    11632    11633 1
   12124    11634    11635 1
   12125    11635    11636 1
   12126    11635    11749 1
   12127    11636    11671 1
   12128    11637    11638 1
   12129    11637    11672 1
   12130    11637    11673 1
   12131    11638    11639 1
   12132    11638    11645 1
   12133    11638    11674 1
   12134    11639    11640 1
   12135    11639    11675 1
   12136    11639    11676 1
   12137    11640    11641 1
   12138    11640    11677 1
   12139    11640    11678 1
   12140    11641    11642 1
   12141    11641    11679 1
   12142    11641    11680 1
   12143    11642    11643 1
   12144    11642    11681 1
   12145    11642    11682 1
   12146    11643    11644 1
   12147    11643    11683 1
   12148    11643    11684 1
   12149    11644    11685 1
   12150    11644    11686 1
   12151    11644    11687 1
   12152    11645    11646 1
   12153    11645    11688 1
   12154    11645    11689 1
   12155    11646    11647 1
   12156    11646    11690 1
   12157    11646    11691 1
   12158    11647    11648 1
   12159    11647    11692 1
   12160    11647    11693 1
   12161    11648    11649 1
   12162    11648    11694 1
   12163    11648    11695 1
   12164    11649    11650 1
   12165    11649    11696 1
   12166    11649    11697 1
   12167    11650    11651 1
   12168    11650    11698 1
   12169    11650    11699 1
   12170    11651    11652 1
   12171    11651    11700 1
   12172    11651    11701 1
   12173    11652    11702 1
   12174    11652    11703 1
   12175    11652    11704 1
   12176    11653    11654 1
   12177    11653    11705 1
   12178    11653    11706 1
   12179    11654    11655 1
   12180    11654    11661 1
   12181    11654    11707 1
   12182    11655    11656 1
   12183    11655    11708 1
   12184    11655    11709 1
   12185    11656    11657 1
   12186    11656    11710 1
   12187    11656    11711 1
   12188    11657    11658 1
   12189    11657    11712 1
   12190    11657    11713 1
   12191    11658    11659 1
   12192    11658    11714 1
   12193    11658    11715 1
   12194    11659    11660 1
   12195    11659    11716 1
   12196    11659    11717 1
   12197    11660    11718 1
   12198    11660    11719 1
   12199    11660    11720 1
   12200    11661    11662 1
   12201    11661    11721 1
   12202    11661    11722 1
   12203    11662    11663 1
   12204    11662    11723 1
   12205    11662    11724 1
   12206    11663    11664 1
   12207    11663    11725 1
   12208    11663    11726 1
   12209    11664    11665 1
   12210    11664    11727 1
   12211    11664    11728 1
   12212    11665    11666 1
   12213    11665    11729 1
   12214    11665    11730 1
   12215    11666    11667 1
   12216    11666    11731 1
   12217    11666    11732 1
   12218    11667    11668 1
   12219    11667    11733 1
   12220    11667    11734 1
   12221    11668    11735 1
   12222    11668    11736 1
   12223    11668    11737 1
   12224    11738    11739 1
   12225    11738    11758 1
   12226    11738    11774 1
   12227    11738    11742 1
   12228    11739    11740 1
   12229    11739    11757 1
   12230    11740    11741 1
   12231    11740    11755 1
   12232    11741    11742 1
   12233    11741    11745 1
   12234    11742    11743 1
   12235    11743    11744 1
   12236    11743    11790 1
   12237    11744    11745 1
   12238    11744    11746 1
   12239    11746    11747 1
   12240    11746    11751 1
   12241    11747    11748 1
   12242    11747    11791 1
   12243    11748    11749 1
   12244    11749    11750 1
   12245    11750    11751 1
   12246    11750    11754 1
   12247    11751    11752 1
   12248    11752    11753 1
   12249    11753    11754 1
   12250    11755    11756 1
   12251    11756    11757 1
   12252    11756    11870 1
   12253    11757    11792 1
   12254    11758    11759 1
   12255    11758    11793 1
   12256    11758    11794 1
   12257    11759    11760 1
   12258    11759    11766 1
   12259    11759    11795 1
   12260    11760    11761 1
   12261    11760    11796 1
   12262    11760    11797 1
   12263    11761    11762 1
   12264    11761    11798 1
   12265    11761    11799 1
   12266    11762    11763 1
   12267    11762    11800 1
   12268    11762    11801 1
   12269    11763    11764 1
   12270    11763    11802 1
   12271    11763    11803 1
   12272    11764    11765 1
   12273    11764    11804 1
   12274    11764    11805 1
   12275    11765    11806 1
   12276    11765    11807 1
   12277    11765    11808 1
   12278    11766    11767 1
   12279    11766    11809 1
   12280    11766    11810 1
   12281    11767    11768 1
   12282    11767    11811 1
   12283    11767    11812 1
   12284    11768    11769 1
   12285    11768    11813 1
   12286    11768    11814 1
   12287    11769    11770 1
   12288    11769    11815 1
   12289    11769    11816 1
   12290    11770    11771 1
   12291    11770    11817 1
   12292    11770    11818 1
   12293    11771    11772 1
   12294    11771    11819 1
   12295    11771    11820 1
   12296    11772    11773 1
   12297    11772    11821 1
   12298    11772    11822 1
   12299    11773    11823 1
   12300    11773    11824 1
   12301    11773    11825 1
   12302    11774    11775 1
   12303    11774    11826 1
   12304    11774    11827 1
   12305    11775    11776 1
   12306    11775    11782 1
   12307    11775    11828 1
   12308    11776    11777 1
   12309    11776    11829 1
   12310    11776    11830 1
   12311    11777    11778 1
   12312    11777    11831 1
   12313    11777    11832 1
   12314    11778    11779 1
   12315    11778    11833 1
   12316    11778    11834 1
   12317    11779    11780 1
   12318    11779    11835 1
   12319    11779    11836 1
   12320    11780    11781 1
   12321    11780    11837 1
   12322    11780    11838 1
   12323    11781    11839 1
   12324    11781    11840 1
   12325    11781    11841 1
   12326    11782    11783 1
   12327    11782    11842 1
   12328    11782    11843 1
   12329    11783    11784 1
   12330    11783    11844 1
   12331    11783    11845 1
   12332    11784    11785 1
   12333    11784    11846 1
   12334    11784    11847 1
   12335    11785    11786 1
   12336    11785    11848 1
   12337    11785    11849 1
   12338    11786    11787 1
   12339    11786    11850 1
   12340    11786    11851 1
   12341    11787    11788 1
   12342    11787    11852 1
   12343    11787    11853 1
   12344    11788    11789 1
   12345    11788    11854 1
   12346    11788    11855 1
   12347    11789    11856 1
   12348    11789    11857 1
   12349    11789    11858 1
   12350    11859    11860 1
   12351    11859    11879 1
   12352    11859    11895 1
   12353    11859    11863 1
   12354    11860    11861 1
   12355    11860    11878 1
   12356    11861    11862 1
   12357    11861    11876 1
   12358    11862    11863 1
   12359    11862    11866 1
   12360    11863    11864 1
   12361    11864    11865 1
   12362    11864    11911 1
   12363    11865    11866 1
   12364    11865    11867 1
   12365    11867    11868 1
   12366    11867    11872 1
   12367    11868    11869 1
   12368    11868    11912 1
   12369    11869    11870 1
   12370    11870    11871 1
   12371    11871    11872 1
   12372    11871    11875 1
   12373    11872    11873 1
   12374    11873    11874 1
   12375    11874    11875 1
   12376    11876    11877 1
   12377    11877    11878 1
   12378    11877    11991 1
   12379    11878    11913 1
   12380    11879    11880 1
   12381    11879    11914 1
   12382    11879    11915 1
   12383    11880    11881 1
   12384    11880    11887 1
   12385    11880    11916 1
   12386    11881    11882 1
   12387    11881    11917 1
   12388    11881    11918 1
   12389    11882    11883 1
   12390    11882    11919 1
   12391    11882    11920 1
   12392    11883    11884 1
   12393    11883    11921 1
   12394    11883    11922 1
   12395    11884    11885 1
   12396    11884    11923 1
   12397    11884    11924 1
   12398    11885    11886 1
   12399    11885    11925 1
   12400    11885    11926 1
   12401    11886    11927 1
   12402    11886    11928 1
   12403    11886    11929 1
   12404    11887    11888 1
   12405    11887    11930 1
   12406    11887    11931 1
   12407    11888    11889 1
   12408    11888    11932 1
   12409    11888    11933 1
   12410    11889    11890 1
   12411    11889    11934 1
   12412    11889    11935 1
   12413    11890    11891 1
   12414    11890    11936 1
   12415    11890    11937 1
   12416    11891    11892 1
   12417    11891    11938 1
   12418    11891    11939 1
   12419    11892    11893 1
   12420    11892    11940 1
   12421    11892    11941 1
   12422    11893    11894 1
   12423    11893    11942 1
   12424    11893    11943 1
   12425    11894    11944 1
   12426    11894    11945 1
   12427    11894    11946 1
   12428    11895    11896 1
   12429    11895    11947 1
   12430    11895    11948 1
   12431    11896    11897 1
   12432    11896    11903 1
   12433    11896    11949 1
   12434    11897    11898 1
   12435    11897    11950 1
   12436    11897    11951 1
   12437    11898    11899 1
   12438    11898    11952 1
   12439    11898    11953 1
   12440    11899    11900 1
   12441    11899    11954 1
   12442    11899    11955 1
   12443    11900    11901 1
   12444    11900    11956 1
   12445    11900    11957 1
   12446    11901    11902 1
   12447    11901    11958 1
   12448    11901    11959 1
   12449    11902    11960 1
   12450    11902    11961 1
   12451    11902    11962 1
   12452    11903    11904 1
   12453    11903    11963 1
   12454    11903    11964 1
   12455    11904    11905 1
   12456    11904    11965 1
   12457    11904    11966 1
   12458    11905    11906 1
   12459    11905    11967 1
   12460    11905    11968 1
   12461    11906    11907 1
   12462    11906    11969 1
   12463    11906    11970 1
   12464    11907    11908 1
   12465    11907    11971 1
   12466    11907    11972 1
   12467    11908    11909 1
   12468    11908    11973 1
   12469    11908    11974 1
   12470    11909    11910 1
   12471    11909    11975 1
   12472    11909    11976 1
   12473    11910    11977 1
   12474    11910    11978 1
   12475    11910    11979 1
   12476    11980    11981 1
   12477    11980    12000 1
   12478    11980    12016 1
   12479    11980    11984 1
   12480    11981    11982 1
   12481    11981    11999 1
   12482    11982    11983 1
   12483    11982    11997 1
   12484    11983    11984 1
   12485    11983    11987 1
   12486    11984    11985 1
   12487    11985    11986 1
   12488    11985    12032 1
   12489    11986    11987 1
   12490    11986    11988 1
   12491    11988    11989 1
   12492    11988    11993 1
   12493    11989    11990 1
   12494    11989    12033 1
   12495    11990    11991 1
   12496    11991    11992 1
   12497    11992    11993 1
   12498    11992    11996 1
   12499    11993    11994 1
   12500    11994    11995 1
   12501    11995    11996 1
   12502    11997    11998 1
   12503    11998    11999 1
   12504    11998    12112 1
   12505    11999    12034 1
   12506    12000    12001 1
   12507    12000    12035 1
   12508    12000    12036 1
   12509    12001    12002 1
   12510    12001    12008 1
   12511    12001    12037 1
   12512    12002    12003 1
   12513    12002    12038 1
   12514    12002    12039 1
   12515    12003    12004 1
   12516    12003    12040 1
   12517    12003    12041 1
   12518    12004    12005 1
   12519    12004    12042 1
   12520    12004    12043 1
   12521    12005    12006 1
   12522    12005    12044 1
   12523    12005    12045 1
   12524    12006    12007 1
   12525    12006    12046 1
   12526    12006    12047 1
   12527    12007    12048 1
   12528    12007    12049 1
   12529    12007    12050 1
   12530    12008    12009 1
   12531    12008    12051 1
   12532    12008    12052 1
   12533    12009    12010 1
   12534    12009    12053 1
   12535    12009    12054 1
   12536    12010    12011 1
   12537    12010    12055 1
   12538    12010    12056 1
   12539    12011    12012 1
   12540    12011    12057 1
   12541    12011    12058 1
   12542    12012    12013 1
   12543    12012    12059 1
   12544    12012    12060 1
   12545    12013    12014 1
   12546    12013    12061 1
   12547    12013    12062 1
   12548    12014    12015 1
   12549    12014    12063 1
   12550    12014    12064 1
   12551    12015    12065 1
   12552    12015    12066 1
   12553    12015    12067 1
   12554    12016    12017 1
   12555    12016    12068 1
   12556    12016    12069 1
   12557    12017    12018 1
   12558    12017    12024 1
   12559    12017    12070 1
   12560    12018    12019 1
   12561    12018    12071 1
   12562    12018    12072 1
   12563    12019    12020 1
   12564    12019    12073 1
   12565    12019    12074 1
   12566    12020    12021 1
   12567    12020    12075 1
   12568    12020    12076 1
   12569    12021    12022 1
   12570    12021    12077 1
   12571    12021    12078 1
   12572    12022    12023 1
   12573    12022    12079 1
   12574    12022    12080 1
   12575    12023    12081 1
   12576    12023    12082 1
   12577    12023    12083 1
   12578    12024    12025 1
   12579    12024    12084 1
   12580    12024    12085 1
   12581    12025    12026 1
   12582    12025    12086 1
   12583    12025    12087 1
   12584    12026    12027 1
   12585    12026    12088 1
   12586    12026    12089 1
   12587    12027    12028 1
   12588    12027    12090 1
   12589    12027    12091 1
   12590    12028    12029 1
   12591    12028    12092 1
   12592    12028    12093 1
   12593    12029    12030 1
   12594    12029    12094 1
   12595    12029    12095 1
   12596    12030    12031 1
   12597    12030    12096 1
   12598    12030    12097 1
   12599    12031    12098 1
   12600    12031    12099 1
   12601    12031    12100 1
   12602    12101    12102 1
   12603    12101    12121 1
   12604    12101    12137 1
   12605    12101    12105 1
   12606    12102    12103 1
   12607    12102    12120 1
   12608    12103    12104 1
   12609    12103    12118 1
   12610    12104    12105 1
   12611    12104    12108 1
   12612    12105    12106 1
   12613    12106    12107 1
   12614    12106    12153 1
   12615    12107    12108 1
   12616    12107    12109 1
   12617    12109    12110 1
   12618    12109    12114 1
   12619    12110    12111 1
   12620    12110    12154 1
   12621    12111    12112 1
   12622    12112    12113 1
   12623    12113    12114 1
   12624    12113    12117 1
   12625    12114    12115 1
   12626    12115    12116 1
   12627    12116    12117 1
   12628    12118    12119 1
   12629    12119    12120 1
   12630    12119    12233 1
   12631    12120    12155 1
   12632    12121    12122 1
   12633    12121    12156 1
   12634    12121    12157 1
   12635    12122    12123 1
   12636    12122    12129 1
   12637    12122    12158 1
   12638    12123    12124 1
   12639    12123    12159 1
   12640    12123    12160 1
   12641    12124    12125 1
   12642    12124    12161 1
   12643    12124    12162 1
   12644    12125    12126 1
   12645    12125    12163 1
   12646    12125    12164 1
   12647    12126    12127 1
   12648    12126    12165 1
   12649    12126    12166 1
   12650    12127    12128 1
   12651    12127    12167 1
   12652    12127    12168 1
   12653    12128    12169 1
   12654    12128    12170 1
   12655    12128    12171 1
   12656    12129    12130 1
   12657    12129    12172 1
   12658    12129    12173 1
   12659    12130    12131 1
   12660    12130    12174 1
   12661    12130    12175 1
   12662    12131    12132 1
   12663    12131    12176 1
   12664    12131    12177 1
   12665    12132    12133 1
   12666    12132    12178 1
   12667    12132    12179 1
   12668    12133    12134 1
   12669    12133    12180 1
   12670    12133    12181 1
   12671    12134    12135 1
   12672    12134    12182 1
   12673    12134    12183 1
   12674    12135    12136 1
   12675    12135    12184 1
   12676    12135    12185 1
   12677    12136    12186 1
   12678    12136    12187 1
   12679    12136    12188 1
   12680    12137    12138 1
   12681    12137    12189 1
   12682    12137    12190 1
   12683    12138    12139 1
   12684    12138    12145 1
   12685    12138    12191 1
   12686    12139    12140 1
   12687    12139    12192 1
   12688    12139    12193 1
   12689    12140    12141 1
   12690    12140    12194 1
   12691    12140    12195 1
   12692    12141    12142 1
   12693    12141    12196 1
   12694    12141    12197 1
   12695    12142    12143 1
   12696    12142    12198 1
   12697    12142    12199 1
   12698    12143    12144 1
   12699    12143    12200 1
   12700    12143    12201 1
   12701    12144    12202 1
   12702    12144    12203 1
   12703    12144    12204 1
   12704    12145    12146 1
   12705    12145    12205 1
   12706    12145    12206 1
   12707    12146    12147 1
   12708    12146    12207 1
   12709    12146    12208 1
   12710    12147    12148 1
   12711    12147    12209 1
   12712    12147    12210 1
   12713    12148    12149 1
   12714    12148    12211 1
   12715    12148    12212 1
   12716    12149    12150 1
   12717    12149    12213 1
   12718    12149    12214 1
   12719    12150    12151 1
   12720    12150    12215 1
   12721    12150    12216 1
   12722    12151    12152 1
   12723    12151    12217 1
   12724    12151    12218 1
   12725    12152    12219 1
   12726    12152    12220 1
   12727    12152    12221 1
   12728    12222    12223 1
   12729    12222    12242 1
   12730    12222    12258 1
   12731    12222    12226 1
   12732    12223    12224 1
   12733    12223    12241 1
   12734    12224    12225 1
   12735    12224    12239 1
   12736    12225    12226 1
   12737    12225    12229 1
   12738    12226    12227 1
   12739    12227    12228 1
   12740    12227    12274 1
   12741    12228    12229 1
   12742    12228    12230 1
   12743    12230    12231 1
   12744    12230    12235 1
   12745    12231    12232 1
   12746    12231    12275 1
   12747    12232    12233 1
   12748    12233    12234 1
   12749    12234    12235 1
   12750    12234    12238 1
   12751    12235    12236 1
   12752    12236    12237 1
   12753    12237    12238 1
   12754    12239    12240 1
   12755    12240    12241 1
   12756    12240    12354 1
   12757    12241    12276 1
   12758    12242    12243 1
   12759    12242    12277 1
   12760    12242    12278 1
   12761    12243    12244 1
   12762    12243    12250 1
   12763    12243    12279 1
   12764    12244    12245 1
   12765    12244    12280 1
   12766    12244    12281 1
   12767    12245    12246 1
   12768    12245    12282 1
   12769    12245    12283 1
   12770    12246    12247 1
   12771    12246    12284 1
   12772    12246    12285 1
   12773    12247    12248 1
   12774    12247    12286 1
   12775    12247    12287 1
   12776    12248    12249 1
   12777    12248    12288 1
   12778    12248    12289 1
   12779    12249    12290 1
   12780    12249    12291 1
   12781    12249    12292 1
   12782    12250    12251 1
   12783    12250    12293 1
   12784    12250    12294 1
   12785    12251    12252 1
   12786    12251    12295 1
   12787    12251    12296 1
   12788    12252    12253 1
   12789    12252    12297 1
   12790    12252    12298 1
   12791    12253    12254 1
   12792    12253    12299 1
   12793    12253    12300 1
   12794    12254    12255 1
   12795    12254    12301 1
   12796    12254    12302 1
   12797    12255    12256 1
   12798    12255    12303 1
   12799    12255    12304 1
   12800    12256    12257 1
   12801    12256    12305 1
   12802    12256    12306 1
   12803    12257    12307 1
   12804    12257    12308 1
   12805    12257    12309 1
   12806    12258    12259 1
   12807    12258    12310 1
   12808    12258    12311 1
   12809    12259    12260 1
   12810    12259    12266 1
   12811    12259    12312 1
   12812    12260    12261 1
   12813    12260    12313 1
   12814    12260    12314 1
   12815    12261    12262 1
   12816    12261    12315 1
   12817    12261    12316 1
   12818    12262    12263 1
   12819    12262    12317 1
   12820    12262    12318 1
   12821    12263    12264 1
   12822    12263    12319 1
   12823    12263    12320 1
   12824    12264    12265 1
   12825    12264    12321 1
   12826    12264    12322 1
   12827    12265    12323 1
   12828    12265    12324 1
   12829    12265    12325 1
   12830    12266    12267 1
   12831    12266    12326 1
   12832    12266    12327 1
   12833    12267    12268 1
   12834    12267    12328 1
   12835    12267    12329 1
   12836    12268    12269 1
   12837    12268    12330 1
   12838    12268    12331 1
   12839    12269    12270 1
   12840    12269    12332 1
   12841    12269    12333 1
   12842    12270    12271 1
   12843    12270    12334 1
   12844    12270    12335 1
   12845    12271    12272 1
   12846    12271    12336 1
   12847    12271    12337 1
   12848    12272    12273 1
   12849    12272    12338 1
   12850    12272    12339 1
   12851    12273    12340 1
   12852    12273    12341 1
   12853    12273    12342 1
   12854    12343    12344 1
   12855    12343    12363 1
   12856    12343    12379 1
   12857    12343    12347 1
   12858    12344    12345 1
   12859    12344    12362 1
   12860    12345    12346 1
   12861    12345    12360 1
   12862    12346    12347 1
   12863    12346    12350 1
   12864    12347    12348 1
   12865    12348    12349 1
   12866    12348    12395 1
   12867    12349    12350 1
   12868    12349    12351 1
   12869    12351    12352 1
   12870    12351    12356 1
   12871    12352    12353 1
   12872    12352    12396 1
   12873    12353    12354 1
   12874    12354    12355 1
   12875    12355    12356 1
   12876    12355    12359 1
   12877    12356    12357 1
   12878    12357    12358 1
   12879    12358    12359 1
   12880    12360    12361 1
   12881    12361    12362 1
   12882    12361    12475 1
   12883    12362    12397 1
   12884    12363    12364 1
   12885    12363    12398 1
   12886    12363    12399 1
   12887    12364    12365 1
   12888    12364    12371 1
   12889    12364    12400 1
   12890    12365    12366 1
   12891    12365    12401 1
   12892    12365    12402 1
   12893    12366    12367 1
   12894    12366    12403 1
   12895    12366    12404 1
   12896    12367    12368 1
   12897    12367    12405 1
   12898    12367    12406 1
   12899    12368    12369 1
   12900    12368    12407 1
   12901    12368    12408 1
   12902    12369    12370 1
   12903    12369    12409 1
   12904    12369    12410 1
   12905    12370    12411 1
   12906    12370    12412 1
   12907    12370    12413 1
   12908    12371    12372 1
   12909    12371    12414 1
   12910    12371    12415 1
   12911    12372    12373 1
   12912    12372    12416 1
   12913    12372    12417 1
   12914    12373    12374 1
   12915    12373    12418 1
   12916    12373    12419 1
   12917    12374    12375 1
   12918    12374    12420 1
   12919    12374    12421 1
   12920    12375    12376 1
   12921    12375    12422 1
   12922    12375    12423 1
   12923    12376    12377 1
   12924    12376    12424 1
   12925    12376    12425 1
   12926    12377    12378 1
   12927    12377    12426 1
   12928    12377    12427 1
   12929    12378    12428 1
   12930    12378    12429 1
   12931    12378    12430 1
   12932    12379    12380 1
   12933    12379    12431 1
   12934    12379    12432 1
   12935    12380    12381 1
   12936    12380    12387 1
   12937    12380    12433 1
   12938    12381    12382 1
   12939    12381    12434 1
   12940    12381    12435 1
   12941    12382    12383 1
   12942    12382    12436 1
   12943    12382    12437 1
   12944    12383    12384 1
   12945    12383    12438 1
   12946    12383    12439 1
   12947    12384    12385 1
   12948    12384    12440 1
   12949    12384    12441 1
   12950    12385    12386 1
   12951    12385    12442 1
   12952    12385    12443 1
   12953    12386    12444 1
   12954    12386    12445 1
   12955    12386    12446 1
   12956    12387    12388 1
   12957    12387    12447 1
   12958    12387    12448 1
   12959    12388    12389 1
   12960    12388    12449 1
   12961    12388    12450 1
   12962    12389    12390 1
   12963    12389    12451 1
   12964    12389    12452 1
   12965    12390    12391 1
   12966    12390    12453 1
   12967    12390    12454 1
   12968    12391    12392 1
   12969    12391    12455 1
   12970    12391    12456 1
   12971    12392    12393 1
   12972    12392    12457 1
   12973    12392    12458 1
   12974    12393    12394 1
   12975    12393    12459 1
   12976    12393    12460 1
   12977    12394    12461 1
   12978    12394    12462 1
   12979    12394    12463 1
   12980    12464    12465 1
   12981    12464    12484 1
   12982    12464    12500 1
   12983    12464    12468 1
   12984    12465    12466 1
   12985    12465    12483 1
   12986    12466    12467 1
   12987    12466    12481 1
   12988    12467    12468 1
   12989    12467    12471 1
   12990    12468    12469 1
   12991    12469    12470 1
   12992    12469    12516 1
   12993    12470    12471 1
   12994    12470    12472 1
   12995    12472    12473 1
   12996    12472    12477 1
   12997    12473    12474 1
   12998    12473    12517 1
   12999    12474    12475 1
   13000    12475    12476 1
   13001    12476    12477 1
   13002    12476    12480 1
   13003    12477    12478 1
   13004    12478    12479 1
   13005    12479    12480 1
   13006    12481    12482 1
   13007    12482    12483 1
   13008    12482    12596 1
   13009    12483    12518 1
   13010    12484    12485 1
   13011    12484    12519 1
   13012    12484    12520 1
   13013    12485    12486 1
   13014    12485    12492 1
   13015    12485    12521 1
   13016    12486    12487 1
   13017    12486    12522 1
   13018    12486    12523 1
   13019    12487    12488 1
   13020    12487    12524 1
   13021    12487    12525 1
   13022    12488    12489 1
   13023    12488    12526 1
   13024    12488    12527 1
   13025    12489    12490 1
   13026    12489    12528 1
   13027    12489    12529 1
   13028    12490    12491 1
   13029    12490    12530 1
   13030    12490    12531 1
   13031    12491    12532 1
   13032    12491    12533 1
   13033    12491    12534 1
   13034    12492    12493 1
   13035    12492    12535 1
   13036    12492    12536 1
   13037    12493    12494 1
   13038    12493    12537 1
   13039    12493    12538 1
   13040    12494    12495 1
   13041    12494    12539 1
   13042    12494    12540 1
   13043    12495    12496 1
   13044    12495    12541 1
   13045    12495    12542 1
   13046    12496    12497 1
   13047    12496    12543 1
   13048    12496    12544 1
   13049    12497    12498 1
   13050    12497    12545 1
   13051    12497    12546 1
   13052    12498    12499 1
   13053    12498    12547 1
   13054    12498    12548 1
   13055    12499    12549 1
   13056    12499    12550 1
   13057    12499    12551 1
   13058    12500    12501 1
   13059    12500    12552 1
   13060    12500    12553 1
   13061    12501    12502 1
   13062    12501    12508 1
   13063    12501    12554 1
   13064    12502    12503 1
   13065    12502    12555 1
   13066    12502    12556 1
   13067    12503    12504 1
   13068    12503    12557 1
   13069    12503    12558 1
   13070    12504    12505 1
   13071    12504    12559 1
   13072    12504    12560 1
   13073    12505    12506 1
   13074    12505    12561 1
   13075    12505    12562 1
   13076    12506    12507 1
   13077    12506    12563 1
   13078    12506    12564 1
   13079    12507    12565 1
   13080    12507    12566 1
   13081    12507    12567 1
   13082    12508    12509 1
   13083    12508    12568 1
   13084    12508    12569 1
   13085    12509    12510 1
   13086    12509    12570 1
   13087    12509    12571 1
   13088    12510    12511 1
   13089    12510    12572 1
   13090    12510    12573 1
   13091    12511    12512 1
   13092    12511    12574 1
   13093    12511    12575 1
   13094    12512    12513 1
   13095    12512    12576 1
   13096    12512    12577 1
   13097    12513    12514 1
   13098    12513    12578 1
   13099    12513    12579 1
   13100    12514    12515 1
   13101    12514    12580 1
   13102    12514    12581 1
   13103    12515    12582 1
   13104    12515    12583 1
   13105    12515    12584 1
   13106    12585    12586 1
   13107    12585    12605 1
   13108    12585    12621 1
   13109    12585    12589 1
   13110    12586    12587 1
   13111    12586    12604 1
   13112    12587    12588 1
   13113    12587    12602 1
   13114    12588    12589 1
   13115    12588    12592 1
   13116    12589    12590 1
   13117    12590    12591 1
   13118    12590    12637 1
   13119    12591    12592 1
   13120    12591    12593 1
   13121    12593    12594 1
   13122    12593    12598 1
   13123    12594    12595 1
   13124    12594    12638 1
   13125    12595    12596 1
   13126    12596    12597 1
   13127    12597    12598 1
   13128    12597    12601 1
   13129    12598    12599 1
   13130    12599    12600 1
   13131    12600    12601 1
   13132    12602    12603 1
   13133    12603    12604 1
   13134    12603    12717 1
   13135    12604    12639 1
   13136    12605    12606 1
   13137    12605    12640 1
   13138    12605    12641 1
   13139    12606    12607 1
   13140    12606    12613 1
   13141    12606    12642 1
   13142    12607    12608 1
   13143    12607    12643 1
   13144    12607    12644 1
   13145    12608    12609 1
   13146    12608    12645 1
   13147    12608    12646 1
   13148    12609    12610 1
   13149    12609    12647 1
   13150    12609    12648 1
   13151    12610    12611 1
   13152    12610    12649 1
   13153    12610    12650 1
   13154    12611    12612 1
   13155    12611    12651 1
   13156    12611    12652 1
   13157    12612    12653 1
   13158    12612    12654 1
   13159    12612    12655 1
   13160    12613    12614 1
   13161    12613    12656 1
   13162    12613    12657 1
   13163    12614    12615 1
   13164    12614    12658 1
   13165    12614    12659 1
   13166    12615    12616 1
   13167    12615    12660 1
   13168    12615    12661 1
   13169    12616    12617 1
   13170    12616    12662 1
   13171    12616    12663 1
   13172    12617    12618 1
   13173    12617    12664 1
   13174    12617    12665 1
   13175    12618    12619 1
   13176    12618    12666 1
   13177    12618    12667 1
   13178    12619    12620 1
   13179    12619    12668 1
   13180    12619    12669 1
   13181    12620    12670 1
   13182    12620    12671 1
   13183    12620    12672 1
   13184    12621    12622 1
   13185    12621    12673 1
   13186    12621    12674 1
   13187    12622    12623 1
   13188    12622    12629 1
   13189    12622    12675 1
   13190    12623    12624 1
   13191    12623    12676 1
   13192    12623    12677 1
   13193    12624    12625 1
   13194    12624    12678 1
   13195    12624    12679 1
   13196    12625    12626 1
   13197    12625    12680 1
   13198    12625    12681 1
   13199    12626    12627 1
   13200    12626    12682 1
   13201    12626    12683 1
   13202    12627    12628 1
   13203    12627    12684 1
   13204    12627    12685 1
   13205    12628    12686 1
   13206    12628    12687 1
   13207    12628    12688 1
   13208    12629    12630 1
   13209    12629    12689 1
   13210    12629    12690 1
   13211    12630    12631 1
   13212    12630    12691 1
   13213    12630    12692 1
   13214    12631    12632 1
   13215    12631    12693 1
   13216    12631    12694 1
   13217    12632    12633 1
   13218    12632    12695 1
   13219    12632    12696 1
   13220    12633    12634 1
   13221    12633    12697 1
   13222    12633    12698 1
   13223    12634    12635 1
   13224    12634    12699 1
   13225    12634    12700 1
   13226    12635    12636 1
   13227    12635    12701 1
   13228    12635    12702 1
   13229    12636    12703 1
   13230    12636    12704 1
   13231    12636    12705 1
   13232    12706    12707 1
   13233    12706    12726 1
   13234    12706    12742 1
   13235    12706    12710 1
   13236    12707    12708 1
   13237    12707    12725 1
   13238    12708    12709 1
   13239    12708    12723 1
   13240    12709    12710 1
   13241    12709    12713 1
   13242    12710    12711 1
   13243    12711    12712 1
   13244    12711    12758 1
   13245    12712    12713 1
   13246    12712    12714 1
   13247    12714    12715 1
   13248    12714    12719 1
   13249    12715    12716 1
   13250    12715    12759 1
   13251    12716    12717 1
   13252    12717    12718 1
   13253    12718    12719 1
   13254    12718    12722 1
   13255    12719    12720 1
   13256    12720    12721 1
   13257    12721    12722 1
   13258    12723    12724 1
   13259    12724    12725 1
   13260    12724    12838 1
   13261    12725    12760 1
   13262    12726    12727 1
   13263    12726    12761 1
   13264    12726    12762 1
   13265    12727    12728 1
   13266    12727    12734 1
   13267    12727    12763 1
   13268    12728    12729 1
   13269    12728    12764 1
   13270    12728    12765 1
   13271    12729    12730 1
   13272    12729    12766 1
   13273    12729    12767 1
   13274    12730    12731 1
   13275    12730    12768 1
   13276    12730    12769 1
   13277    12731    12732 1
   13278    12731    12770 1
   13279    12731    12771 1
   13280    12732    12733 1
   13281    12732    12772 1
   13282    12732    12773 1
   13283    12733    12774 1
   13284    12733    12775 1
   13285    12733    12776 1
   13286    12734    12735 1
   13287    12734    12777 1
   13288    12734    12778 1
   13289    12735    12736 1
   13290    12735    12779 1
   13291    12735    12780 1
   13292    12736    12737 1
   13293    12736    12781 1
   13294    12736    12782 1
   13295    12737    12738 1
   13296    12737    12783 1
   13297    12737    12784 1
   13298    12738    12739 1
   13299    12738    12785 1
   13300    12738    12786 1
   13301    12739    12740 1
   13302    12739    12787 1
   13303    12739    12788 1
   13304    12740    12741 1
   13305    12740    12789 1
   13306    12740    12790 1
   13307    12741    12791 1
   13308    12741    12792 1
   13309    12741    12793 1
   13310    12742    12743 1
   13311    12742    12794 1
   13312    12742    12795 1
   13313    12743    12744 1
   13314    12743    12750 1
   13315    12743    12796 1
   13316    12744    12745 1
   13317    12744    12797 1
   13318    12744    12798 1
   13319    12745    12746 1
   13320    12745    12799 1
   13321    12745    12800 1
   13322    12746    12747 1
   13323    12746    12801 1
   13324    12746    12802 1
   13325    12747    12748 1
   13326    12747    12803 1
   13327    12747    12804 1
   13328    12748    12749 1
   13329    12748    12805 1
   13330    12748    12806 1
   13331    12749    12807 1
   13332    12749    12808 1
   13333    12749    12809 1
   13334    12750    12751 1
   13335    12750    12810 1
   13336    12750    12811 1
   13337    12751    12752 1
   13338    12751    12812 1
   13339    12751    12813 1
   13340    12752    12753 1
   13341    12752    12814 1
   13342    12752    12815 1
   13343    12753    12754 1
   13344    12753    12816 1
   13345    12753    12817 1
   13346    12754    12755 1
   13347    12754    12818 1
   13348    12754    12819 1
   13349    12755    12756 1
   13350    12755    12820 1
   13351    12755    12821 1
   13352    12756    12757 1
   13353    12756    12822 1
   13354    12756    12823 1
   13355    12757    12824 1
   13356    12757    12825 1
   13357    12757    12826 1
   13358    12827    12828 1
   13359    12827    12847 1
   13360    12827    12863 1
   13361    12827    12831 1
   13362    12828    12829 1
   13363    12828    12846 1
   13364    12829    12830 1
   13365    12829    12844 1
   13366    12830    12831 1
   13367    12830    12834 1
   13368    12831    12832 1
   13369    12832    12833 1
   13370    12832    12879 1
   13371    12833    12834 1
   13372    12833    12835 1
   13373    12835    12836 1
   13374    12835    12840 1
   13375    12836    12837 1
   13376    12836    12880 1
   13377    12837    12838 1
   13378    12838    12839 1
   13379    12839    12840 1
   13380    12839    12843 1
   13381    12840    12841 1
   13382    12841    12842 1
   13383    12842    12843 1
   13384    12844    12845 1
   13385    12845    12846 1
   13386    12845    12959 1
   13387    12846    12881 1
   13388    12847    12848 1
   13389    12847    12882 1
   13390    12847    12883 1
   13391    12848    12849 1
   13392    12848    12855 1
   13393    12848    12884 1
   13394    12849    12850 1
   13395    12849    12885 1
   13396    12849    12886 1
   13397    12850    12851 1
   13398    12850    12887 1
   13399    12850    12888 1
   13400    12851    12852 1
   13401    12851    12889 1
   13402    12851    12890 1
   13403    12852    12853 1
   13404    12852    12891 1
   13405    12852    12892 1
   13406    12853    12854 1
   13407    12853    12893 1
   13408    12853    12894 1
   13409    12854    12895 1
   13410    12854    12896 1
   13411    12854    12897 1
   13412    12855    12856 1
   13413    12855    12898 1
   13414    12855    12899 1
   13415    12856    12857 1
   13416    12856    12900 1
   13417    12856    12901 1
   13418    12857    12858 1
   13419    12857    12902 1
   13420    12857    12903 1
   13421    12858    12859 1
   13422    12858    12904 1
   13423    12858    12905 1
   13424    12859    12860 1
   13425    12859    12906 1
   13426    12859    12907 1
   13427    12860    12861 1
   13428    12860    12908 1
   13429    12860    12909 1
   13430    12861    12862 1
   13431    12861    12910 1
   13432    12861    12911 1
   13433    12862    12912 1
   13434    12862    12913 1
   13435    12862    12914 1
   13436    12863    12864 1
   13437    12863    12915 1
   13438    12863    12916 1
   13439    12864    12865 1
   13440    12864    12871 1
   13441    12864    12917 1
   13442    12865    12866 1
   13443    12865    12918 1
   13444    12865    12919 1
   13445    12866    12867 1
   13446    12866    12920 1
   13447    12866    12921 1
   13448    12867    12868 1
   13449    12867    12922 1
   13450    12867    12923 1
   13451    12868    12869 1
   13452    12868    12924 1
   13453    12868    12925 1
   13454    12869    12870 1
   13455    12869    12926 1
   13456    12869    12927 1
   13457    12870    12928 1
   13458    12870    12929 1
   13459    12870    12930 1
   13460    12871    12872 1
   13461    12871    12931 1
   13462    12871    12932 1
   13463    12872    12873 1
   13464    12872    12933 1
   13465    12872    12934 1
   13466    12873    12874 1
   13467    12873    12935 1
   13468    12873    12936 1
   13469    12874    12875 1
   13470    12874    12937 1
   13471    12874    12938 1
   13472    12875    12876 1
   13473    12875    12939 1
   13474    12875    12940 1
   13475    12876    12877 1
   13476    12876    12941 1
   13477    12876    12942 1
   13478    12877    12878 1
   13479    12877    12943 1
   13480    12877    12944 1
   13481    12878    12945 1
   13482    12878    12946 1
   13483    12878    12947 1
   13484    12948    12949 1
   13485    12948    12968 1
   13486    12948    12984 1
   13487    12948    12952 1
   13488    12949    12950 1
   13489    12949    12967 1
   13490    12950    12951 1
   13491    12950    12965 1
   13492    12951    12952 1
   13493    12951    12955 1
   13494    12952    12953 1
   13495    12953    12954 1
   13496    12953    13000 1
   13497    12954    12955 1
   13498    12954    12956 1
   13499    12956    12957 1
   13500    12956    12961 1
   13501    12957    12958 1
   13502    12957    13001 1
   13503    12958    12959 1
   13504    12959    12960 1
   13505    12960    12961 1
   13506    12960    12964 1
   13507    12961    12962 1
   13508    12962    12963 1
   13509    12963    12964 1
   13510    12965    12966 1
   13511    12966    12967 1
   13512    12966    13080 1
   13513    12967    13002 1
   13514    12968    12969 1
   13515    12968    13003 1
   13516    12968    13004 1
   13517    12969    12970 1
   13518    12969    12976 1
   13519    12969    13005 1
   13520    12970    12971 1
   13521    12970    13006 1
   13522    12970    13007 1
   13523    12971    12972 1
   13524    12971    13008 1
   13525    12971    13009 1
   13526    12972    12973 1
   13527    12972    13010 1
   13528    12972    13011 1
   13529    12973    12974 1
   13530    12973    13012 1
   13531    12973    13013 1
   13532    12974    12975 1
   13533    12974    13014 1
   13534    12974    13015 1
   13535    12975    13016 1
   13536    12975    13017 1
   13537    12975    13018 1
   13538    12976    12977 1
   13539    12976    13019 1
   13540    12976    13020 1
   13541    12977    12978 1
   13542    12977    13021 1
   13543    12977    13022 1
   13544    12978    12979 1
   13545    12978    13023 1
   13546    12978    13024 1
   13547    12979    12980 1
   13548    12979    13025 1
   13549    12979    13026 1
   13550    12980    12981 1
   13551    12980    13027 1
   13552    12980    13028 1
   13553    12981    12982 1
   13554    12981    13029 1
   13555    12981    13030 1
   13556    12982    12983 1
   13557    12982    13031 1
   13558    12982    13032 1
   13559    12983    13033 1
   13560    12983    13034 1
   13561    12983    13035 1
   13562    12984    12985 1
   13563    12984    13036 1
   13564    12984    13037 1
   13565    12985    12986 1
   13566    12985    12992 1
   13567    12985    13038 1
   13568    12986    12987 1
   13569    12986    13039 1
   13570    12986    13040 1
   13571    12987    12988 1
   13572    12987    13041 1
   13573    12987    13042 1
   13574    12988    12989 1
   13575    12988    13043 1
   13576    12988    13044 1
   13577    12989    12990 1
   13578    12989    13045 1
   13579    12989    13046 1
   13580    12990    12991 1
   13581    12990    13047 1
   13582    12990    13048 1
   13583    12991    13049 1
   13584    12991    13050 1
   13585    12991    13051 1
   13586    12992    12993 1
   13587    12992    13052 1
   13588    12992    13053 1
   13589    12993    12994 1
   13590    12993    13054 1
   13591    12993    13055 1
   13592    12994    12995 1
   13593    12994    13056 1
   13594    12994    13057 1
   13595    12995    12996 1
   13596    12995    13058 1
   13597    12995    13059 1
   13598    12996    12997 1
   13599    12996    13060 1
   13600    12996    13061 1
   13601    12997    12998 1
   13602    12997    13062 1
   13603    12997    13063 1
   13604    12998    12999 1
   13605    12998    13064 1
   13606    12998    13065 1
   13607    12999    13066 1
   13608    12999    13067 1
   13609    12999    13068 1
   13610    13069    13070 1
   13611    13069    13089 1
   13612    13069    13105 1
   13613    13069    13073 1
   13614    13070    13071 1
   13615    13070    13088 1
   13616    13071    13072 1
   13617    13071    13086 1
   13618    13072    13073 1
   13619    13072    13076 1
   13620    13073    13074 1
   13621    13074    13075 1
   13622    13074    13121 1
   13623    13075    13076 1
   13624    13075    13077 1
   13625    13077    13078 1
   13626    13077    13082 1
   13627    13078    13079 1
   13628    13078    13122 1
   13629    13079    13080 1
   13630    13080    13081 1
   13631    13081    13082 1
   13632    13081    13085 1
   13633    13082    13083 1
   13634    13083    13084 1
   13635    13084    13085 1
   13636    13086    13087 1
   13637    13087    13088 1
   13638    13087    13201 1
   13639    13088    13123 1
   13640    13089    13090 1
   13641    13089    13124 1
   13642    13089    13125 1
   13643    13090    13091 1
   13644    13090    13097 1
   13645    13090    13126 1
   13646    13091    13092 1
   13647    13091    13127 1
   13648    13091    13128 1
   13649    13092    13093 1
   13650    13092    13129 1
   13651    13092    13130 1
   13652    13093    13094 1
   13653    13093    13131 1
   13654    13093    13132 1
   13655    13094    13095 1
   13656    13094    13133 1
   13657    13094    13134 1
   13658    13095    13096 1
   13659    13095    13135 1
   13660    13095    13136 1
   13661    13096    13137 1
   13662    13096    13138 1
   13663    13096    13139 1
   13664    13097    13098 1
   13665    13097    13140 1
   13666    13097    13141 1
   13667    13098    13099 1
   13668    13098    13142 1
   13669    13098    13143 1
   13670    13099    13100 1
   13671    13099    13144 1
   13672    13099    13145 1
   13673    13100    13101 1
   13674    13100    13146 1
   13675    13100    13147 1
   13676    13101    13102 1
   13677    13101    13148 1
   13678    13101    13149 1
   13679    13102    13103 1
   13680    13102    13150 1
   13681    13102    13151 1
   13682    13103    13104 1
   13683    13103    13152 1
   13684    13103    13153 1
   13685    13104    13154 1
   13686    13104    13155 1
   13687    13104    13156 1
   13688    13105    13106 1
   13689    13105    13157 1
   13690    13105    13158 1
   13691    13106    13107 1
   13692    13106    13113 1
   13693    13106    13159 1
   13694    13107    13108 1
   13695    13107    13160 1
   13696    13107    13161 1
   13697    13108    13109 1
   13698    13108    13162 1
   13699    13108    13163 1
   13700    13109    13110 1
   13701    13109    13164 1
   13702    13109    13165 1
   13703    13110    13111 1
   13704    13110    13166 1
   13705    13110    13167 1
   13706    13111    13112 1
   13707    13111    13168 1
   13708    13111    13169 1
   13709    13112    13170 1
   13710    13112    13171 1
   13711    13112    13172 1
   13712    13113    13114 1
   13713    13113    13173 1
   13714    13113    13174 1
   13715    13114    13115 1
   13716    13114    13175 1
   13717    13114    13176 1
   13718    13115    13116 1
   13719    13115    13177 1
   13720    13115    13178 1
   13721    13116    13117 1
   13722    13116    13179 1
   13723    13116    13180 1
   13724    13117    13118 1
   13725    13117    13181 1
   13726    13117    13182 1
   13727    13118    13119 1
   13728    13118    13183 1
   13729    13118    13184 1
   13730    13119    13120 1
   13731    13119    13185 1
   13732    13119    13186 1
   13733    13120    13187 1
   13734    13120    13188 1
   13735    13120    13189 1
   13736    13190    13191 1
   13737    13190    13210 1
   13738    13190    13226 1
   13739    13190    13194 1
   13740    13191    13192 1
   13741    13191    13209 1
   13742    13192    13193 1
   13743    13192    13207 1
   13744    13193    13194 1
   13745    13193    13197 1
   13746    13194    13195 1
   13747    13195    13196 1
   13748    13195    13242 1
   13749    13196    13197 1
   13750    13196    13198 1
   13751    13198    13199 1
   13752    13198    13203 1
   13753    13199    13200 1
   13754    13199    13243 1
   13755    13200    13201 1
   13756    13201    13202 1
   13757    13202    13203 1
   13758    13202    13206 1
   13759    13203    13204 1
   13760    13204    13205 1
   13761    13205    13206 1
   13762    13207    13208 1
   13763    13208    13209 1
   13764    13208    13322 1
   13765    13209    13244 1
   13766    13210    13211 1
   13767    13210    13245 1
   13768    13210    13246 1
   13769    13211    13212 1
   13770    13211    13218 1
   13771    13211    13247 1
   13772    13212    13213 1
   13773    13212    13248 1
   13774    13212    13249 1
   13775    13213    13214 1
   13776    13213    13250 1
   13777    13213    13251 1
   13778    13214    13215 1
   13779    13214    13252 1
   13780    13214    13253 1
   13781    13215    13216 1
   13782    13215    13254 1
   13783    13215    13255 1
   13784    13216    13217 1
   13785    13216    13256 1
   13786    13216    13257 1
   13787    13217    13258 1
   13788    13217    13259 1
   13789    13217    13260 1
   13790    13218    13219 1
   13791    13218    13261 1
   13792    13218    13262 1
   13793    13219    13220 1
   13794    13219    13263 1
   13795    13219    13264 1
   13796    13220    13221 1
   13797    13220    13265 1
   13798    13220    13266 1
   13799    13221    13222 1
   13800    13221    13267 1
   13801    13221    13268 1
   13802    13222    13223 1
   13803    13222    13269 1
   13804    13222    13270 1
   13805    13223    13224 1
   13806    13223    13271 1
   13807    13223    13272 1
   13808    13224    13225 1
   13809    13224    13273 1
   13810    13224    13274 1
   13811    13225    13275 1
   13812    13225    13276 1
   13813    13225    13277 1
   13814    13226    13227 1
   13815    13226    13278 1
   13816    13226    13279 1
   13817    13227    13228 1
   13818    13227    13234 1
   13819    13227    13280 1
   13820    13228    13229 1
   13821    13228    13281 1
   13822    13228    13282 1
   13823    13229    13230 1
   13824    13229    13283 1
   13825    13229    13284 1
   13826    13230    13231 1
   13827    13230    13285 1
   13828    13230    13286 1
   13829    13231    13232 1
   13830    13231    13287 1
   13831    13231    13288 1
   13832    13232    13233 1
   13833    13232    13289 1
   13834    13232    13290 1
   13835    13233    13291 1
   13836    13233    13292 1
   13837    13233    13293 1
   13838    13234    13235 1
   13839    13234    13294 1
   13840    13234    13295 1
   13841    13235    13236 1
   13842    13235    13296 1
   13843    13235    13297 1
   13844    13236    13237 1
   13845    13236    13298 1
   13846    13236    13299 1
   13847    13237    13238 1
   13848    13237    13300 1
   13849    13237    13301 1
   13850    13238    13239 1
   13851    13238    13302 1
   13852    13238    13303 1
   13853    13239    13240 1
   13854    13239    13304 1
   13855    13239    13305 1
   13856    13240    13241 1
   13857    13240    13306 1
   13858    13240    13307 1
   13859    13241    13308 1
   13860    13241    13309 1
   13861    13241    13310 1
   13862    13311    13312 1
   13863    13311    13331 1
   13864    13311    13347 1
   13865    13311    13315 1
   13866    13312    13313 1
   13867    13312    13330 1
   13868    13313    13314 1
   13869    13313    13328 1
   13870    13314    13315 1
   13871    13314    13318 1
   13872    13315    13316 1
   13873    13316    13317 1
   13874    13316    13363 1
   13875    13317    13318 1
   13876    13317    13319 1
   13877    13319    13320 1
   13878    13319    13324 1
   13879    13320    13321 1
   13880    13320    13364 1
   13881    13321    13322 1
   13882    13322    13323 1
   13883    13323    13324 1
   13884    13323    13327 1
   13885    13324    13325 1
   13886    13325    13326 1
   13887    13326    13327 1
   13888    13328    13329 1
   13889    13329    13330 1
   13890    13329    13443 1
   13891    13330    13365 1
   13892    13331    13332 1
   13893    13331    13366 1
   13894    13331    13367 1
   13895    13332    13333 1
   13896    13332    13339 1
   13897    13332    13368 1
   13898    13333    13334 1
   13899    13333    13369 1
   13900    13333    13370 1
   13901    13334    13335 1
   13902    13334    13371 1
   13903    13334    13372 1
   13904    13335    13336 1
   13905    13335    13373 1
   13906    13335    13374 1
   13907    13336    13337 1
   13908    13336    13375 1
   13909    13336    13376 1
   13910    13337    13338 1
   13911    13337    13377 1
   13912    13337    13378 1
   13913    13338    13379 1
   13914    13338    13380 1
   13915    13338    13381 1
   13916    13339    13340 1
   13917    13339    13382 1
   13918    13339    13383 1
   13919    13340    13341 1
   13920    13340    13384 1
   13921    13340    13385 1
   13922    13341    13342 1
   13923    13341    13386 1
   13924    13341    13387 1
   13925    13342    13343 1
   13926    13342    13388 1
   13927    13342    13389 1
   13928    13343    13344 1
   13929    13343    13390 1
   13930    13343    13391 1
   13931    13344    13345 1
   13932    13344    13392 1
   13933    13344    13393 1
   13934    13345    13346 1
   13935    13345    13394 1
   13936    13345    13395 1
   13937    13346    13396 1
   13938    13346    13397 1
   13939    13346    13398 1
   13940    13347    13348 1
   13941    13347    13399 1
   13942    13347    13400 1
   13943    13348    13349 1
   13944    13348    13355 1
   13945    13348    13401 1
   13946    13349    13350 1
   13947    13349    13402 1
   13948    13349    13403 1
   13949    13350    13351 1
   13950    13350    13404 1
   13951    13350    13405 1
   13952    13351    13352 1
   13953    13351    13406 1
   13954    13351    13407 1
   13955    13352    13353 1
   13956    13352    13408 1
   13957    13352    13409 1
   13958    13353    13354 1
   13959    13353    13410 1
   13960    13353    13411 1
   13961    13354    13412 1
   13962    13354    13413 1
   13963    13354    13414 1
   13964    13355    13356 1
   13965    13355    13415 1
   13966    13355    13416 1
   13967    13356    13357 1
   13968    13356    13417 1
   13969    13356    13418 1
   13970    13357    13358 1
   13971    13357    13419 1
   13972    13357    13420 1
   13973    13358    13359 1
   13974    13358    13421 1
   13975    13358    13422 1
   13976    13359    13360 1
   13977    13359    13423 1
   13978    13359    13424 1
   13979    13360    13361 1
   13980    13360    13425 1
   13981    13360    13426 1
   13982    13361    13362 1
   13983    13361    13427 1
   13984    13361    13428 1
   13985    13362    13429 1
   13986    13362    13430 1
   13987    13362    13431 1
   13988    13432    13433 1
   13989    13432    13452 1
   13990    13432    13468 1
   13991    13432    13436 1
   13992    13433    13434 1
   13993    13433    13451 1
   13994    13434    13435 1
   13995    13434    13449 1
   13996    13435    13436 1
   13997    13435    13439 1
   13998    13436    13437 1
   13999    13437    13438 1
   14000    13437    13484 1
   14001    13438    13439 1
   14002    13438    13440 1
   14003    13440    13441 1
   14004    13440    13445 1
   14005    13441    13442 1
   14006    13441    13485 1
   14007    13442    13443 1
   14008    13443    13444 1
   14009    13444    13445 1
   14010    13444    13448 1
   14011    13445    13446 1
   14012    13446    13447 1
   14013    13447    13448 1
   14014    13449    13450 1
   14015    13450    13451 1
   14016    13450    13564 1
   14017    13451    13486 1
   14018    13452    13453 1
   14019    13452    13487 1
   14020    13452    13488 1
   14021    13453    13454 1
   14022    13453    13460 1
   14023    13453    13489 1
   14024    13454    13455 1
   14025    13454    13490 1
   14026    13454    13491 1
   14027    13455    13456 1
   14028    13455    13492 1
   14029    13455    13493 1
   14030    13456    13457 1
   14031    13456    13494 1
   14032    13456    13495 1
   14033    13457    13458 1
   14034    13457    13496 1
   14035    13457    13497 1
   14036    13458    13459 1
   14037    13458    13498 1
   14038    13458    13499 1
   14039    13459    13500 1
   14040    13459    13501 1
   14041    13459    13502 1
   14042    13460    13461 1
   14043    13460    13503 1
   14044    13460    13504 1
   14045    13461    13462 1
   14046    13461    13505 1
   14047    13461    13506 1
   14048    13462    13463 1
   14049    13462    13507 1
   14050    13462    13508 1
   14051    13463    13464 1
   14052    13463    13509 1
   14053    13463    13510 1
   14054    13464    13465 1
   14055    13464    13511 1
   14056    13464    13512 1
   14057    13465    13466 1
   14058    13465    13513 1
   14059    13465    13514 1
   14060    13466    13467 1
   14061    13466    13515 1
   14062    13466    13516 1
   14063    13467    13517 1
   14064    13467    13518 1
   14065    13467    13519 1
   14066    13468    13469 1
   14067    13468    13520 1
   14068    13468    13521 1
   14069    13469    13470 1
   14070    13469    13476 1
   14071    13469    13522 1
   14072    13470    13471 1
   14073    13470    13523 1
   14074    13470    13524 1
   14075    13471    13472 1
   14076    13471    13525 1
   14077    13471    13526 1
   14078    13472    13473 1
   14079    13472    13527 1
   14080    13472    13528 1
   14081    13473    13474 1
   14082    13473    13529 1
   14083    13473    13530 1
   14084    13474    13475 1
   14085    13474    13531 1
   14086    13474    13532 1
   14087    13475    13533 1
   14088    13475    13534 1
   14089    13475    13535 1
   14090    13476    13477 1
   14091    13476    13536 1
   14092    13476    13537 1
   14093    13477    13478 1
   14094    13477    13538 1
   14095    13477    13539 1
   14096    13478    13479 1
   14097    13478    13540 1
   14098    13478    13541 1
   14099    13479    13480 1
   14100    13479    13542 1
   14101    13479    13543 1
   14102    13480    13481 1
   14103    13480    13544 1
   14104    13480    13545 1
   14105    13481    13482 1
   14106    13481    13546 1
   14107    13481    13547 1
   14108    13482    13483 1
   14109    13482    13548 1
   14110    13482    13549 1
   14111    13483    13550 1
   14112    13483    13551 1
   14113    13483    13552 1
   14114    13553    13554 1
   14115    13553    13573 1
   14116    13553    13589 1
   14117    13553    13557 1
   14118    13554    13555 1
   14119    13554    13572 1
   14120    13555    13556 1
   14121    13555    13570 1
   14122    13556    13557 1
   14123    13556    13560 1
   14124    13557    13558 1
   14125    13558    13559 1
   14126    13558    13605 1
   14127    13559    13560 1
   14128    13559    13561 1
   14129    13561    13562 1
   14130    13561    13566 1
   14131    13562    13563 1
   14132    13562    13606 1
   14133    13563    13564 1
   14134    13564    13565 1
   14135    13565    13566 1
   14136    13565    13569 1
   14137    13566    13567 1
   14138    13567    13568 1
   14139    13568    13569 1
   14140    13570    13571 1
   14141    13571    13572 1
   14142    13571    13685 1
   14143    13572    13607 1
   14144    13573    13574 1
   14145    13573    13608 1
   14146    13573    13609 1
   14147    13574    13575 1
   14148    13574    13581 1
   14149    13574    13610 1
   14150    13575    13576 1
   14151    13575    13611 1
   14152    13575    13612 1
   14153    13576    13577 1
   14154    13576    13613 1
   14155    13576    13614 1
   14156    13577    13578 1
   14157    13577    13615 1
   14158    13577    13616 1
   14159    13578    13579 1
   14160    13578    13617 1
   14161    13578    13618 1
   14162    13579    13580 1
   14163    13579    13619 1
   14164    13579    13620 1
   14165    13580    13621 1
   14166    13580    13622 1
   14167    13580    13623 1
   14168    13581    13582 1
   14169    13581    13624 1
   14170    13581    13625 1
   14171    13582    13583 1
   14172    13582    13626 1
   14173    13582    13627 1
   14174    13583    13584 1
   14175    13583    13628 1
   14176    13583    13629 1
   14177    13584    13585 1
   14178    13584    13630 1
   14179    13584    13631 1
   14180    13585    13586 1
   14181    13585    13632 1
   14182    13585    13633 1
   14183    13586    13587 1
   14184    13586    13634 1
   14185    13586    13635 1
   14186    13587    13588 1
   14187    13587    13636 1
   14188    13587    13637 1
   14189    13588    13638 1
   14190    13588    13639 1
   14191    13588    13640 1
   14192    13589    13590 1
   14193    13589    13641 1
   14194    13589    13642 1
   14195    13590    13591 1
   14196    13590    13597 1
   14197    13590    13643 1
   14198    13591    13592 1
   14199    13591    13644 1
   14200    13591    13645 1
   14201    13592    13593 1
   14202    13592    13646 1
   14203    13592    13647 1
   14204    13593    13594 1
   14205    13593    13648 1
   14206    13593    13649 1
   14207    13594    13595 1
   14208    13594    13650 1
   14209    13594    13651 1
   14210    13595    13596 1
   14211    13595    13652 1
   14212    13595    13653 1
   14213    13596    13654 1
   14214    13596    13655 1
   14215    13596    13656 1
   14216    13597    13598 1
   14217    13597    13657 1
   14218    13597    13658 1
   14219    13598    13599 1
   14220    13598    13659 1
   14221    13598    13660 1
   14222    13599    13600 1
   14223    13599    13661 1
   14224    13599    13662 1
   14225    13600    13601 1
   14226    13600    13663 1
   14227    13600    13664 1
   14228    13601    13602 1
   14229    13601    13665 1
   14230    13601    13666 1
   14231    13602    13603 1
   14232    13602    13667 1
   14233    13602    13668 1
   14234    13603    13604 1
   14235    13603    13669 1
   14236    13603    13670 1
   14237    13604    13671 1
   14238    13604    13672 1
   14239    13604    13673 1
   14240    13674    13675 1
   14241    13674    13694 1
   14242    13674    13710 1
   14243    13674    13678 1
   14244    13675    13676 1
   14245    13675    13693 1
   14246    13676    13677 1
   14247    13676    13691 1
   14248    13677    13678 1
   14249    13677    13681 1
   14250    13678    13679 1
   14251    13679    13680 1
   14252    13679    13726 1
   14253    13680    13681 1
   14254    13680    13682 1
   14255    13682    13683 1
   14256    13682    13687 1
   14257    13683    13684 1
   14258    13683    13727 1
   14259    13684    13685 1
   14260    13685    13686 1
   14261    13686    13687 1
   14262    13686    13690 1
   14263    13687    13688 1
   14264    13688    13689 1
   14265    13689    13690 1
   14266    13691    13692 1
   14267    13692    13693 1
   14268    13692    13806 1
   14269    13693    13728 1
   14270    13694    13695 1
   14271    13694    13729 1
   14272    13694    13730 1
   14273    13695    13696 1
   14274    13695    13702 1
   14275    13695    13731 1
   14276    13696    13697 1
   14277    13696    13732 1
   14278    13696    13733 1
   14279    13697    13698 1
   14280    13697    13734 1
   14281    13697    13735 1
   14282    13698    13699 1
   14283    13698    13736 1
   14284    13698    13737 1
   14285    13699    13700 1
   14286    13699    13738 1
   14287    13699    13739 1
   14288    13700    13701 1
   14289    13700    13740 1
   14290    13700    13741 1
   14291    13701    13742 1
   14292    13701    13743 1
   14293    13701    13744 1
   14294    13702    13703 1
   14295    13702    13745 1
   14296    13702    13746 1
   14297    13703    13704 1
   14298    13703    13747 1
   14299    13703    13748 1
   14300    13704    13705 1
   14301    13704    13749 1
   14302    13704    13750 1
   14303    13705    13706 1
   14304    13705    13751 1
   14305    13705    13752 1
   14306    13706    13707 1
   14307    13706    13753 1
   14308    13706    13754 1
   14309    13707    13708 1
   14310    13707    13755 1
   14311    13707    13756 1
   14312    13708    13709 1
   14313    13708    13757 1
   14314    13708    13758 1
   14315    13709    13759 1
   14316    13709    13760 1
   14317    13709    13761 1
   14318    13710    13711 1
   14319    13710    13762 1
   14320    13710    13763 1
   14321    13711    13712 1
   14322    13711    13718 1
   14323    13711    13764 1
   14324    13712    13713 1
   14325    13712    13765 1
   14326    13712    13766 1
   14327    13713    13714 1
   14328    13713    13767 1
   14329    13713    13768 1
   14330    13714    13715 1
   14331    13714    13769 1
   14332    13714    13770 1
   14333    13715    13716 1
   14334    13715    13771 1
   14335    13715    13772 1
   14336    13716    13717 1
   14337    13716    13773 1
   14338    13716    13774 1
   14339    13717    13775 1
   14340    13717    13776 1
   14341    13717    13777 1
   14342    13718    13719 1
   14343    13718    13778 1
   14344    13718    13779 1
   14345    13719    13720 1
   14346    13719    13780 1
   14347    13719    13781 1
   14348    13720    13721 1
   14349    13720    13782 1
   14350    13720    13783 1
   14351    13721    13722 1
   14352    13721    13784 1
   14353    13721    13785 1
   14354    13722    13723 1
   14355    13722    13786 1
   14356    13722    13787 1
   14357    13723    13724 1
   14358    13723    13788 1
   14359    13723    13789 1
   14360    13724    13725 1
   14361    13724    13790 1
   14362    13724    13791 1
   14363    13725    13792 1
   14364    13725    13793 1
   14365    13725    13794 1
   14366    13795    13796 1
   14367    13795    13815 1
   14368    13795    13831 1
   14369    13795    13799 1
   14370    13796    13797 1
   14371    13796    13814 1
   14372    13797    13798 1
   14373    13797    13812 1
   14374    13798    13799 1
   14375    13798    13802 1
   14376    13799    13800 1
   14377    13800    13801 1
   14378    13800    13847 1
   14379    13801    13802 1
   14380    13801    13803 1
   14381    13803    13804 1
   14382    13803    13808 1
   14383    13804    13805 1
   14384    13804    13848 1
   14385    13805    13806 1
   14386    13806    13807 1
   14387    13807    13808 1
   14388    13807    13811 1
   14389    13808    13809 1
   14390    13809    13810 1
   14391    13810    13811 1
   14392    13812    13813 1
   14393    13813    13814 1
   14394    13813    13927 1
   14395    13814    13849 1
   14396    13815    13816 1
   14397    13815    13850 1
   14398    13815    13851 1
   14399    13816    13817 1
   14400    13816    13823 1
   14401    13816    13852 1
   14402    13817    13818 1
   14403    13817    13853 1
   14404    13817    13854 1
   14405    13818    13819 1
   14406    13818    13855 1
   14407    13818    13856 1
   14408    13819    13820 1
   14409    13819    13857 1
   14410    13819    13858 1
   14411    13820    13821 1
   14412    13820    13859 1
   14413    13820    13860 1
   14414    13821    13822 1
   14415    13821    13861 1
   14416    13821    13862 1
   14417    13822    13863 1
   14418    13822    13864 1
   14419    13822    13865 1
   14420    13823    13824 1
   14421    13823    13866 1
   14422    13823    13867 1
   14423    13824    13825 1
   14424    13824    13868 1
   14425    13824    13869 1
   14426    13825    13826 1
   14427    13825    13870 1
   14428    13825    13871 1
   14429    13826    13827 1
   14430    13826    13872 1
   14431    13826    13873 1
   14432    13827    13828 1
   14433    13827    13874 1
   14434    13827    13875 1
   14435    13828    13829 1
   14436    13828    13876 1
   14437    13828    13877 1
   14438    13829    13830 1
   14439    13829    13878 1
   14440    13829    13879 1
   14441    13830    13880 1
   14442    13830    13881 1
   14443    13830    13882 1
   14444    13831    13832 1
   14445    13831    13883 1
   14446    13831    13884 1
   14447    13832    13833 1
   14448    13832    13839 1
   14449    13832    13885 1
   14450    13833    13834 1
   14451    13833    13886 1
   14452    13833    13887 1
   14453    13834    13835 1
   14454    13834    13888 1
   14455    13834    13889 1
   14456    13835    13836 1
   14457    13835    13890 1
   14458    13835    13891 1
   14459    13836    13837 1
   14460    13836    13892 1
   14461    13836    13893 1
   14462    13837    13838 1
   14463    13837    13894 1
   14464    13837    13895 1
   14465    13838    13896 1
   14466    13838    13897 1
   14467    13838    13898 1
   14468    13839    13840 1
   14469    13839    13899 1
   14470    13839    13900 1
   14471    13840    13841 1
   14472    13840    13901 1
   14473    13840    13902 1
   14474    13841    13842 1
   14475    13841    13903 1
   14476    13841    13904 1
   14477    13842    13843 1
   14478    13842    13905 1
   14479    13842    13906 1
   14480    13843    13844 1
   14481    13843    13907 1
   14482    13843    13908 1
   14483    13844    13845 1
   14484    13844    13909 1
   14485    13844    13910 1
   14486    13845    13846 1
   14487    13845    13911 1
   14488    13845    13912 1
   14489    13846    13913 1
   14490    13846    13914 1
   14491    13846    13915 1
   14492    13916    13917 1
   14493    13916    13936 1
   14494    13916    13952 1
   14495    13916    13920 1
   14496    13917    13918 1
   14497    13917    13935 1
   14498    13918    13919 1
   14499    13918    13933 1
   14500    13919    13920 1
   14501    13919    13923 1
   14502    13920    13921 1
   14503    13921    13922 1
   14504    13921    13968 1
   14505    13922    13923 1
   14506    13922    13924 1
   14507    13924    13925 1
   14508    13924    13929 1
   14509    13925    13926 1
   14510    13925    13969 1
   14511    13926    13927 1
   14512    13927    13928 1
   14513    13928    13929 1
   14514    13928    13932 1
   14515    13929    13930 1
   14516    13930    13931 1
   14517    13931    13932 1
   14518    13933    13934 1
   14519    13934    13935 1
   14520    13934    14048 1
   14521    13935    13970 1
   14522    13936    13937 1
   14523    13936    13971 1
   14524    13936    13972 1
   14525    13937    13938 1
   14526    13937    13944 1
   14527    13937    13973 1
   14528    13938    13939 1
   14529    13938    13974 1
   14530    13938    13975 1
   14531    13939    13940 1
   14532    13939    13976 1
   14533    13939    13977 1
   14534    13940    13941 1
   14535    13940    13978 1
   14536    13940    13979 1
   14537    13941    13942 1
   14538    13941    13980 1
   14539    13941    13981 1
   14540    13942    13943 1
   14541    13942    13982 1
   14542    13942    13983 1
   14543    13943    13984 1
   14544    13943    13985 1
   14545    13943    13986 1
   14546    13944    13945 1
   14547    13944    13987 1
   14548    13944    13988 1
   14549    13945    13946 1
   14550    13945    13989 1
   14551    13945    13990 1
   14552    13946    13947 1
   14553    13946    13991 1
   14554    13946    13992 1
   14555    13947    13948 1
   14556    13947    13993 1
   14557    13947    13994 1
   14558    13948    13949 1
   14559    13948    13995 1
   14560    13948    13996 1
   14561    13949    13950 1
   14562    13949    13997 1
   14563    13949    13998 1
   14564    13950    13951 1
   14565    13950    13999 1
   14566    13950    14000 1
   14567    13951    14001 1
   14568    13951    14002 1
   14569    13951    14003 1
   14570    13952    13953 1
   14571    13952    14004 1
   14572    13952    14005 1
   14573    13953    13954 1
   14574    13953    13960 1
   14575    13953    14006 1
   14576    13954    13955 1
   14577    13954    14007 1
   14578    13954    14008 1
   14579    13955    13956 1
   14580    13955    14009 1
   14581    13955    14010 1
   14582    13956    13957 1
   14583    13956    14011 1
   14584    13956    14012 1
   14585    13957    13958 1
   14586    13957    14013 1
   14587    13957    14014 1
   14588    13958    13959 1
   14589    13958    14015 1
   14590    13958    14016 1
   14591    13959    14017 1
   14592    13959    14018 1
   14593    13959    14019 1
   14594    13960    13961 1
   14595    13960    14020 1
   14596    13960    14021 1
   14597    13961    13962 1
   14598    13961    14022 1
   14599    13961    14023 1
   14600    13962    13963 1
   14601    13962    14024 1
   14602    13962    14025 1
   14603    13963    13964 1
   14604    13963    14026 1
   14605    13963    14027 1
   14606    13964    13965 1
   14607    13964    14028 1
   14608    13964    14029 1
   14609    13965    13966 1
   14610    13965    14030 1
   14611    13965    14031 1
   14612    13966    13967 1
   14613    13966    14032 1
   14614    13966    14033 1
   14615    13967    14034 1
   14616    13967    14035 1
   14617    13967    14036 1
   14618    14037    14038 1
   14619    14037    14057 1
   14620    14037    14073 1
   14621    14037    14041 1
   14622    14038    14039 1
   14623    14038    14056 1
   14624    14039    14040 1
   14625    14039    14054 1
   14626    14040    14041 1
   14627    14040    14044 1
   14628    14041    14042 1
   14629    14042    14043 1
   14630    14042    14089 1
   14631    14043    14044 1
   14632    14043    14045 1
   14633    14045    14046 1
   14634    14045    14050 1
   14635    14046    14047 1
   14636    14046    14090 1
   14637    14047    14048 1
   14638    14048    14049 1
   14639    14049    14050 1
   14640    14049    14053 1
   14641    14050    14051 1
   14642    14051    14052 1
   14643    14052    14053 1
   14644    14054    14055 1
   14645    14055    14056 1
   14646    14055    14169 1
   14647    14056    14091 1
   14648    14057    14058 1
   14649    14057    14092 1
   14650    14057    14093 1
   14651    14058    14059 1
   14652    14058    14065 1
   14653    14058    14094 1
   14654    14059    14060 1
   14655    14059    14095 1
   14656    14059    14096 1
   14657    14060    14061 1
   14658    14060    14097 1
   14659    14060    14098 1
   14660    14061    14062 1
   14661    14061    14099 1
   14662    14061    14100 1
   14663    14062    14063 1
   14664    14062    14101 1
   14665    14062    14102 1
   14666    14063    14064 1
   14667    14063    14103 1
   14668    14063    14104 1
   14669    14064    14105 1
   14670    14064    14106 1
   14671    14064    14107 1
   14672    14065    14066 1
   14673    14065    14108 1
   14674    14065    14109 1
   14675    14066    14067 1
   14676    14066    14110 1
   14677    14066    14111 1
   14678    14067    14068 1
   14679    14067    14112 1
   14680    14067    14113 1
   14681    14068    14069 1
   14682    14068    14114 1
   14683    14068    14115 1
   14684    14069    14070 1
   14685    14069    14116 1
   14686    14069    14117 1
   14687    14070    14071 1
   14688    14070    14118 1
   14689    14070    14119 1
   14690    14071    14072 1
   14691    14071    14120 1
   14692    14071    14121 1
   14693    14072    14122 1
   14694    14072    14123 1
   14695    14072    14124 1
   14696    14073    14074 1
   14697    14073    14125 1
   14698    14073    14126 1
   14699    14074    14075 1
   14700    14074    14081 1
   14701    14074    14127 1
   14702    14075    14076 1
   14703    14075    14128 1
   14704    14075    14129 1
   14705    14076    14077 1
   14706    14076    14130 1
   14707    14076    14131 1
   14708    14077    14078 1
   14709    14077    14132 1
   14710    14077    14133 1
   14711    14078    14079 1
   14712    14078    14134 1
   14713    14078    14135 1
   14714    14079    14080 1
   14715    14079    14136 1
   14716    14079    14137 1
   14717    14080    14138 1
   14718    14080    14139 1
   14719    14080    14140 1
   14720    14081    14082 1
   14721    14081    14141 1
   14722    14081    14142 1
   14723    14082    14083 1
   14724    14082    14143 1
   14725    14082    14144 1
   14726    14083    14084 1
   14727    14083    14145 1
   14728    14083    14146 1
   14729    14084    14085 1
   14730    14084    14147 1
   14731    14084    14148 1
   14732    14085    14086 1
   14733    14085    14149 1
   14734    14085    14150 1
   14735    14086    14087 1
   14736    14086    14151 1
   14737    14086    14152 1
   14738    14087    14088 1
   14739    14087    14153 1
   14740    14087    14154 1
   14741    14088    14155 1
   14742    14088    14156 1
   14743    14088    14157 1
   14744    14158    14159 1
   14745    14158    14178 1
   14746    14158    14194 1
   14747    14158    14162 1
   14748    14159    14160 1
   14749    14159    14177 1
   14750    14160    14161 1
   14751    14160    14175 1
   14752    14161    14162 1
   14753    14161    14165 1
   14754    14162    14163 1
   14755    14163    14164 1
   14756    14163    14210 1
   14757    14164    14165 1
   14758    14164    14166 1
   14759    14166    14167 1
   14760    14166    14171 1
   14761    14167    14168 1
   14762    14167    14211 1
   14763    14168    14169 1
   14764    14169    14170 1
   14765    14170    14171 1
   14766    14170    14174 1
   14767    14171    14172 1
   14768    14172    14173 1
   14769    14173    14174 1
   14770    14175    14176 1
   14771    14176    14177 1
   14772    14176    14290 1
   14773    14177    14212 1
   14774    14178    14179 1
   14775    14178    14213 1
   14776    14178    14214 1
   14777    14179    14180 1
   14778    14179    14186 1
   14779    14179    14215 1
   14780    14180    14181 1
   14781    14180    14216 1
   14782    14180    14217 1
   14783    14181    14182 1
   14784    14181    14218 1
   14785    14181    14219 1
   14786    14182    14183 1
   14787    14182    14220 1
   14788    14182    14221 1
   14789    14183    14184 1
   14790    14183    14222 1
   14791    14183    14223 1
   14792    14184    14185 1
   14793    14184    14224 1
   14794    14184    14225 1
   14795    14185    14226 1
   14796    14185    14227 1
   14797    14185    14228 1
   14798    14186    14187 1
   14799    14186    14229 1
   14800    14186    14230 1
   14801    14187    14188 1
   14802    14187    14231 1
   14803    14187    14232 1
   14804    14188    14189 1
   14805    14188    14233 1
   14806    14188    14234 1
   14807    14189    14190 1
   14808    14189    14235 1
   14809    14189    14236 1
   14810    14190    14191 1
   14811    14190    14237 1
   14812    14190    14238 1
   14813    14191    14192 1
   14814    14191    14239 1
   14815    14191    14240 1
   14816    14192    14193 1
   14817    14192    14241 1
   14818    14192    14242 1
   14819    14193    14243 1
   14820    14193    14244 1
   14821    14193    14245 1
   14822    14194    14195 1
   14823    14194    14246 1
   14824    14194    14247 1
   14825    14195    14196 1
   14826    14195    14202 1
   14827    14195    14248 1
   14828    14196    14197 1
   14829    14196    14249 1
   14830    14196    14250 1
   14831    14197    14198 1
   14832    14197    14251 1
   14833    14197    14252 1
   14834    14198    14199 1
   14835    14198    14253 1
   14836    14198    14254 1
   14837    14199    14200 1
   14838    14199    14255 1
   14839    14199    14256 1
   14840    14200    14201 1
   14841    14200    14257 1
   14842    14200    14258 1
   14843    14201    14259 1
   14844    14201    14260 1
   14845    14201    14261 1
   14846    14202    14203 1
   14847    14202    14262 1
   14848    14202    14263 1
   14849    14203    14204 1
   14850    14203    14264 1
   14851    14203    14265 1
   14852    14204    14205 1
   14853    14204    14266 1
   14854    14204    14267 1
   14855    14205    14206 1
   14856    14205    14268 1
   14857    14205    14269 1
   14858    14206    14207 1
   14859    14206    14270 1
   14860    14206    14271 1
   14861    14207    14208 1
   14862    14207    14272 1
   14863    14207    14273 1
   14864    14208    14209 1
   14865    14208    14274 1
   14866    14208    14275 1
   14867    14209    14276 1
   14868    14209    14277 1
   14869    14209    14278 1
   14870    14279    14280 1
   14871    14279    14299 1
   14872    14279    14315 1
   14873    14279    14283 1
   14874    14280    14281 1
   14875    14280    14298 1
   14876    14281    14282 1
   14877    14281    14296 1
   14878    14282    14283 1
   14879    14282    14286 1
   14880    14283    14284 1
   14881    14284    14285 1
   14882    14284    14331 1
   14883    14285    14286 1
   14884    14285    14287 1
   14885    14287    14288 1
   14886    14287    14292 1
   14887    14288    14289 1
   14888    14288    14332 1
   14889    14289    14290 1
   14890    14290    14291 1
   14891    14291    14292 1
   14892    14291    14295 1
   14893    14292    14293 1
   14894    14293    14294 1
   14895    14294    14295 1
   14896    14296    14297 1
   14897    14297    14298 1
   14898    14297    14411 1
   14899    14298    14333 1
   14900    14299    14300 1
   14901    14299    14334 1
   14902    14299    14335 1
   14903    14300    14301 1
   14904    14300    14307 1
   14905    14300    14336 1
   14906    14301    14302 1
   14907    14301    14337 1
   14908    14301    14338 1
   14909    14302    14303 1
   14910    14302    14339 1
   14911    14302    14340 1
   14912    14303    14304 1
   14913    14303    14341 1
   14914    14303    14342 1
   14915    14304    14305 1
   14916    14304    14343 1
   14917    14304    14344 1
   14918    14305    14306 1
   14919    14305    14345 1
   14920    14305    14346 1
   14921    14306    14347 1
   14922    14306    14348 1
   14923    14306    14349 1
   14924    14307    14308 1
   14925    14307    14350 1
   14926    14307    14351 1
   14927    14308    14309 1
   14928    14308    14352 1
   14929    14308    14353 1
   14930    14309    14310 1
   14931    14309    14354 1
   14932    14309    14355 1
   14933    14310    14311 1
   14934    14310    14356 1
   14935    14310    14357 1
   14936    14311    14312 1
   14937    14311    14358 1
   14938    14311    14359 1
   14939    14312    14313 1
   14940    14312    14360 1
   14941    14312    14361 1
   14942    14313    14314 1
   14943    14313    14362 1
   14944    14313    14363 1
   14945    14314    14364 1
   14946    14314    14365 1
   14947    14314    14366 1
   14948    14315    14316 1
   14949    14315    14367 1
   14950    14315    14368 1
   14951    14316    14317 1
   14952    14316    14323 1
   14953    14316    14369 1
   14954    14317    14318 1
   14955    14317    14370 1
   14956    14317    14371 1
   14957    14318    14319 1
   14958    14318    14372 1
   14959    14318    14373 1
   14960    14319    14320 1
   14961    14319    14374 1
   14962    14319    14375 1
   14963    14320    14321 1
   14964    14320    14376 1
   14965    14320    14377 1
   14966    14321    14322 1
   14967    14321    14378 1
   14968    14321    14379 1
   14969    14322    14380 1
   14970    14322    14381 1
   14971    14322    14382 1
   14972    14323    14324 1
   14973    14323    14383 1
   14974    14323    14384 1
   14975    14324    14325 1
   14976    14324    14385 1
   14977    14324    14386 1
   14978    14325    14326 1
   14979    14325    14387 1
   14980    14325    14388 1
   14981    14326    14327 1
   14982    14326    14389 1
   14983    14326    14390 1
   14984    14327    14328 1
   14985    14327    14391 1
   14986    14327    14392 1
   14987    14328    14329 1
   14988    14328    14393 1
   14989    14328    14394 1
   14990    14329    14330 1
   14991    14329    14395 1
   14992    14329    14396 1
   14993    14330    14397 1
   14994    14330    14398 1
   14995    14330    14399 1
   14996    14400    14401 1
   14997    14400    14420 1
   14998    14400    14436 1
   14999    14400    14404 1
   15000    14401    14402 1
   15001    14401    14419 1
   15002    14402    14403 1
   15003    14402    14417 1
   15004    14403    14404 1
   15005    14403    14407 1
   15006    14404    14405 1
   15007    14405    14406 1
   15008    14405    14452 1
   15009    14406    14407 1
   15010    14406    14408 1
   15011    14408    14409 1
   15012    14408    14413 1
   15013    14409    14410 1
   15014    14409    14453 1
   15015    14410    14411 1
   15016    14411    14412 1
   15017    14412    14413 1
   15018    14412    14416 1
   15019    14413    14414 1
   15020    14414    14415 1
   15021    14415    14416 1
   15022    14417    14418 1
   15023    14418    14419 1
   15024    14418    14532 1
   15025    14419    14454 1
   15026    14420    14421 1
   15027    14420    14455 1
   15028    14420    14456 1
   15029    14421    14422 1
   15030    14421    14428 1
   15031    14421    14457 1
   15032    14422    14423 1
   15033    14422    14458 1
   15034    14422    14459 1
   15035    14423    14424 1
   15036    14423    14460 1
   15037    14423    14461 1
   15038    14424    14425 1
   15039    14424    14462 1
   15040    14424    14463 1
   15041    14425    14426 1
   15042    14425    14464 1
   15043    14425    14465 1
   15044    14426    14427 1
   15045    14426    14466 1
   15046    14426    14467 1
   15047    14427    14468 1
   15048    14427    14469 1
   15049    14427    14470 1
   15050    14428    14429 1
   15051    14428    14471 1
   15052    14428    14472 1
   15053    14429    14430 1
   15054    14429    14473 1
   15055    14429    14474 1
   15056    14430    14431 1
   15057    14430    14475 1
   15058    14430    14476 1
   15059    14431    14432 1
   15060    14431    14477 1
   15061    14431    14478 1
   15062    14432    14433 1
   15063    14432    14479 1
   15064    14432    14480 1
   15065    14433    14434 1
   15066    14433    14481 1
   15067    14433    14482 1
   15068    14434    14435 1
   15069    14434    14483 1
   15070    14434    14484 1
   15071    14435    14485 1
   15072    14435    14486 1
   15073    14435    14487 1
   15074    14436    14437 1
   15075    14436    14488 1
   15076    14436    14489 1
   15077    14437    14438 1
   15078    14437    14444 1
   15079    14437    14490 1
   15080    14438    14439 1
   15081    14438    14491 1
   15082    14438    14492 1
   15083    14439    14440 1
   15084    14439    14493 1
   15085    14439    14494 1
   15086    14440    14441 1
   15087    14440    14495 1
   15088    14440    14496 1
   15089    14441    14442 1
   15090    14441    14497 1
   15091    14441    14498 1
   15092    14442    14443 1
   15093    14442    14499 1
   15094    14442    14500 1
   15095    14443    14501 1
   15096    14443    14502 1
   15097    14443    14503 1
   15098    14444    14445 1
   15099    14444    14504 1
   15100    14444    14505 1
   15101    14445    14446 1
   15102    14445    14506 1
   15103    14445    14507 1
   15104    14446    14447 1
   15105    14446    14508 1
   15106    14446    14509 1
   15107    14447    14448 1
   15108    14447    14510 1
   15109    14447    14511 1
   15110    14448    14449 1
   15111    14448    14512 1
   15112    14448    14513 1
   15113    14449    14450 1
   15114    14449    14514 1
   15115    14449    14515 1
   15116    14450    14451 1
   15117    14450    14516 1
   15118    14450    14517 1
   15119    14451    14518 1
   15120    14451    14519 1
   15121    14451    14520 1
   15122    14521    14522 1
   15123    14521    14541 1
   15124    14521    14557 1
   15125    14521    14525 1
   15126    14522    14523 1
   15127    14522    14540 1
   15128    14523    14524 1
   15129    14523    14538 1
   15130    14524    14525 1
   15131    14524    14528 1
   15132    14525    14526 1
   15133    14526    14527 1
   15134    14526    14573 1
   15135    14527    14528 1
   15136    14527    14529 1
   15137    14529    14530 1
   15138    14529    14534 1
   15139    14530    14531 1
   15140    14530    14574 1
   15141    14531    14532 1
   15142    14532    14533 1
   15143    14533    14534 1
   15144    14533    14537 1
   15145    14534    14535 1
   15146    14535    14536 1
   15147    14536    14537 1
   15148    14538    14539 1
   15149    14539    14540 1
   15150    14539    14653 1
   15151    14540    14575 1
   15152    14541    14542 1
   15153    14541    14576 1
   15154    14541    14577 1
   15155    14542    14543 1
   15156    14542    14549 1
   15157    14542    14578 1
   15158    14543    14544 1
   15159    14543    14579 1
   15160    14543    14580 1
   15161    14544    14545 1
   15162    14544    14581 1
   15163    14544    14582 1
   15164    14545    14546 1
   15165    14545    14583 1
   15166    14545    14584 1
   15167    14546    14547 1
   15168    14546    14585 1
   15169    14546    14586 1
   15170    14547    14548 1
   15171    14547    14587 1
   15172    14547    14588 1
   15173    14548    14589 1
   15174    14548    14590 1
   15175    14548    14591 1
   15176    14549    14550 1
   15177    14549    14592 1
   15178    14549    14593 1
   15179    14550    14551 1
   15180    14550    14594 1
   15181    14550    14595 1
   15182    14551    14552 1
   15183    14551    14596 1
   15184    14551    14597 1
   15185    14552    14553 1
   15186    14552    14598 1
   15187    14552    14599 1
   15188    14553    14554 1
   15189    14553    14600 1
   15190    14553    14601 1
   15191    14554    14555 1
   15192    14554    14602 1
   15193    14554    14603 1
   15194    14555    14556 1
   15195    14555    14604 1
   15196    14555    14605 1
   15197    14556    14606 1
   15198    14556    14607 1
   15199    14556    14608 1
   15200    14557    14558 1
   15201    14557    14609 1
   15202    14557    14610 1
   15203    14558    14559 1
   15204    14558    14565 1
   15205    14558    14611 1
   15206    14559    14560 1
   15207    14559    14612 1
   15208    14559    14613 1
   15209    14560    14561 1
   15210    14560    14614 1
   15211    14560    14615 1
   15212    14561    14562 1
   15213    14561    14616 1
   15214    14561    14617 1
   15215    14562    14563 1
   15216    14562    14618 1
   15217    14562    14619 1
   15218    14563    14564 1
   15219    14563    14620 1
   15220    14563    14621 1
   15221    14564    14622 1
   15222    14564    14623 1
   15223    14564    14624 1
   15224    14565    14566 1
   15225    14565    14625 1
   15226    14565    14626 1
   15227    14566    14567 1
   15228    14566    14627 1
   15229    14566    14628 1
   15230    14567    14568 1
   15231    14567    14629 1
   15232    14567    14630 1
   15233    14568    14569 1
   15234    14568    14631 1
   15235    14568    14632 1
   15236    14569    14570 1
   15237    14569    14633 1
   15238    14569    14634 1
   15239    14570    14571 1
   15240    14570    14635 1
   15241    14570    14636 1
   15242    14571    14572 1
   15243    14571    14637 1
   15244    14571    14638 1
   15245    14572    14639 1
   15246    14572    14640 1
   15247    14572    14641 1
   15248    14642    14643 1
   15249    14642    14662 1
   15250    14642    14678 1
   15251    14642    14646 1
   15252    14643    14644 1
   15253    14643    14661 1
   15254    14644    14645 1
   15255    14644    14659 1
   15256    14645    14646 1
   15257    14645    14649 1
   15258    14646    14647 1
   15259    14647    14648 1
   15260    14647    14694 1
   15261    14648    14649 1
   15262    14648    14650 1
   15263    14650    14651 1
   15264    14650    14655 1
   15265    14651    14652 1
   15266    14651    14695 1
   15267    14652    14653 1
   15268    14653    14654 1
   15269    14654    14655 1
   15270    14654    14658 1
   15271    14655    14656 1
   15272    14656    14657 1
   15273    14657    14658 1
   15274    14659    14660 1
   15275    14660    14661 1
   15276    14660    14774 1
   15277    14661    14696 1
   15278    14662    14663 1
   15279    14662    14697 1
   15280    14662    14698 1
   15281    14663    14664 1
   15282    14663    14670 1
   15283    14663    14699 1
   15284    14664    14665 1
   15285    14664    14700 1
   15286    14664    14701 1
   15287    14665    14666 1
   15288    14665    14702 1
   15289    14665    14703 1
   15290    14666    14667 1
   15291    14666    14704 1
   15292    14666    14705 1
   15293    14667    14668 1
   15294    14667    14706 1
   15295    14667    14707 1
   15296    14668    14669 1
   15297    14668    14708 1
   15298    14668    14709 1
   15299    14669    14710 1
   15300    14669    14711 1
   15301    14669    14712 1
   15302    14670    14671 1
   15303    14670    14713 1
   15304    14670    14714 1
   15305    14671    14672 1
   15306    14671    14715 1
   15307    14671    14716 1
   15308    14672    14673 1
   15309    14672    14717 1
   15310    14672    14718 1
   15311    14673    14674 1
   15312    14673    14719 1
   15313    14673    14720 1
   15314    14674    14675 1
   15315    14674    14721 1
   15316    14674    14722 1
   15317    14675    14676 1
   15318    14675    14723 1
   15319    14675    14724 1
   15320    14676    14677 1
   15321    14676    14725 1
   15322    14676    14726 1
   15323    14677    14727 1
   15324    14677    14728 1
   15325    14677    14729 1
   15326    14678    14679 1
   15327    14678    14730 1
   15328    14678    14731 1
   15329    14679    14680 1
   15330    14679    14686 1
   15331    14679    14732 1
   15332    14680    14681 1
   15333    14680    14733 1
   15334    14680    14734 1
   15335    14681    14682 1
   15336    14681    14735 1
   15337    14681    14736 1
   15338    14682    14683 1
   15339    14682    14737 1
   15340    14682    14738 1
   15341    14683    14684 1
   15342    14683    14739 1
   15343    14683    14740 1
   15344    14684    14685 1
   15345    14684    14741 1
   15346    14684    14742 1
   15347    14685    14743 1
   15348    14685    14744 1
   15349    14685    14745 1
   15350    14686    14687 1
   15351    14686    14746 1
   15352    14686    14747 1
   15353    14687    14688 1
   15354    14687    14748 1
   15355    14687    14749 1
   15356    14688    14689 1
   15357    14688    14750 1
   15358    14688    14751 1
   15359    14689    14690 1
   15360    14689    14752 1
   15361    14689    14753 1
   15362    14690    14691 1
   15363    14690    14754 1
   15364    14690    14755 1
   15365    14691    14692 1
   15366    14691    14756 1
   15367    14691    14757 1
   15368    14692    14693 1
   15369    14692    14758 1
   15370    14692    14759 1
   15371    14693    14760 1
   15372    14693    14761 1
   15373    14693    14762 1
   15374    14763    14764 1
   15375    14763    14783 1
   15376    14763    14799 1
   15377    14763    14767 1
   15378    14764    14765 1
   15379    14764    14782 1
   15380    14765    14766 1
   15381    14765    14780 1
   15382    14766    14767 1
   15383    14766    14770 1
   15384    14767    14768 1
   15385    14768    14769 1
   15386    14768    14815 1
   15387    14769    14770 1
   15388    14769    14771 1
   15389    14771    14772 1
   15390    14771    14776 1
   15391    14772    14773 1
   15392    14772    14816 1
   15393    14773    14774 1
   15394    14774    14775 1
   15395    14775    14776 1
   15396    14775    14779 1
   15397    14776    14777 1
   15398    14777    14778 1
   15399    14778    14779 1
   15400    14780    14781 1
   15401    14781    14782 1
   15402    14781    14895 1
   15403    14782    14817 1
   15404    14783    14784 1
   15405    14783    14818 1
   15406    14783    14819 1
   15407    14784    14785 1
   15408    14784    14791 1
   15409    14784    14820 1
   15410    14785    14786 1
   15411    14785    14821 1
   15412    14785    14822 1
   15413    14786    14787 1
   15414    14786    14823 1
   15415    14786    14824 1
   15416    14787    14788 1
   15417    14787    14825 1
   15418    14787    14826 1
   15419    14788    14789 1
   15420    14788    14827 1
   15421    14788    14828 1
   15422    14789    14790 1
   15423    14789    14829 1
   15424    14789    14830 1
   15425    14790    14831 1
   15426    14790    14832 1
   15427    14790    14833 1
   15428    14791    14792 1
   15429    14791    14834 1
   15430    14791    14835 1
   15431    14792    14793 1
   15432    14792    14836 1
   15433    14792    14837 1
   15434    14793    14794 1
   15435    14793    14838 1
   15436    14793    14839 1
   15437    14794    14795 1
   15438    14794    14840 1
   15439    14794    14841 1
   15440    14795    14796 1
   15441    14795    14842 1
   15442    14795    14843 1
   15443    14796    14797 1
   15444    14796    14844 1
   15445    14796    14845 1
   15446    14797    14798 1
   15447    14797    14846 1
   15448    14797    14847 1
   15449    14798    14848 1
   15450    14798    14849 1
   15451    14798    14850 1
   15452    14799    14800 1
   15453    14799    14851 1
   15454    14799    14852 1
   15455    14800    14801 1
   15456    14800    14807 1
   15457    14800    14853 1
   15458    14801    14802 1
   15459    14801    14854 1
   15460    14801    14855 1
   15461    14802    14803 1
   15462    14802    14856 1
   15463    14802    14857 1
   15464    14803    14804 1
   15465    14803    14858 1
   15466    14803    14859 1
   15467    14804    14805 1
   15468    14804    14860 1
   15469    14804    14861 1
   15470    14805    14806 1
   15471    14805    14862 1
   15472    14805    14863 1
   15473    14806    14864 1
   15474    14806    14865 1
   15475    14806    14866 1
   15476    14807    14808 1
   15477    14807    14867 1
   15478    14807    14868 1
   15479    14808    14809 1
   15480    14808    14869 1
   15481    14808    14870 1
   15482    14809    14810 1
   15483    14809    14871 1
   15484    14809    14872 1
   15485    14810    14811 1
   15486    14810    14873 1
   15487    14810    14874 1
   15488    14811    14812 1
   15489    14811    14875 1
   15490    14811    14876 1
   15491    14812    14813 1
   15492    14812    14877 1
   15493    14812    14878 1
   15494    14813    14814 1
   15495    14813    14879 1
   15496    14813    14880 1
   15497    14814    14881 1
   15498    14814    14882 1
   15499    14814    14883 1
   15500    14884    14885 1
   15501    14884    14904 1
   15502    14884    14920 1
   15503    14884    14888 1
   15504    14885    14886 1
   15505    14885    14903 1
   15506    14886    14887 1
   15507    14886    14901 1
   15508    14887    14888 1
   15509    14887    14891 1
   15510    14888    14889 1
   15511    14889    14890 1
   15512    14889    14936 1
   15513    14890    14891 1
   15514    14890    14892 1
   15515    14892    14893 1
   15516    14892    14897 1
   15517    14893    14894 1
   15518    14893    14937 1
   15519    14894    14895 1
   15520    14895    14896 1
   15521    14896    14897 1
   15522    14896    14900 1
   15523    14897    14898 1
   15524    14898    14899 1
   15525    14899    14900 1
   15526    14901    14902 1
   15527    14902    14903 1
   15528    14902    15016 1
   15529    14903    14938 1
   15530    14904    14905 1
   15531    14904    14939 1
   15532    14904    14940 1
   15533    14905    14906 1
   15534    14905    14912 1
   15535    14905    14941 1
   15536    14906    14907 1
   15537    14906    14942 1
   15538    14906    14943 1
   15539    14907    14908 1
   15540    14907    14944 1
   15541    14907    14945 1
   15542    14908    14909 1
   15543    14908    14946 1
   15544    14908    14947 1
   15545    14909    14910 1
   15546    14909    14948 1
   15547    14909    14949 1
   15548    14910    14911 1
   15549    14910    14950 1
   15550    14910    14951 1
   15551    14911    14952 1
   15552    14911    14953 1
   15553    14911    14954 1
   15554    14912    14913 1
   15555    14912    14955 1
   15556    14912    14956 1
   15557    14913    14914 1
   15558    14913    14957 1
   15559    14913    14958 1
   15560    14914    14915 1
   15561    14914    14959 1
   15562    14914    14960 1
   15563    14915    14916 1
   15564    14915    14961 1
   15565    14915    14962 1
   15566    14916    14917 1
   15567    14916    14963 1
   15568    14916    14964 1
   15569    14917    14918 1
   15570    14917    14965 1
   15571    14917    14966 1
   15572    14918    14919 1
   15573    14918    14967 1
   15574    14918    14968 1
   15575    14919    14969 1
   15576    14919    14970 1
   15577    14919    14971 1
   15578    14920    14921 1
   15579    14920    14972 1
   15580    14920    14973 1
   15581    14921    14922 1
   15582    14921    14928 1
   15583    14921    14974 1
   15584    14922    14923 1
   15585    14922    14975 1
   15586    14922    14976 1
   15587    14923    14924 1
   15588    14923    14977 1
   15589    14923    14978 1
   15590    14924    14925 1
   15591    14924    14979 1
   15592    14924    14980 1
   15593    14925    14926 1
   15594    14925    14981 1
   15595    14925    14982 1
   15596    14926    14927 1
   15597    14926    14983 1
   15598    14926    14984 1
   15599    14927    14985 1
   15600    14927    14986 1
   15601    14927    14987 1
   15602    14928    14929 1
   15603    14928    14988 1
   15604    14928    14989 1
   15605    14929    14930 1
   15606    14929    14990 1
   15607    14929    14991 1
   15608    14930    14931 1
   15609    14930    14992 1
   15610    14930    14993 1
   15611    14931    14932 1
   15612    14931    14994 1
   15613    14931    14995 1
   15614    14932    14933 1
   15615    14932    14996 1
   15616    14932    14997 1
   15617    14933    14934 1
   15618    14933    14998 1
   15619    14933    14999 1
   15620    14934    14935 1
   15621    14934    15000 1
   15622    14934    15001 1
   15623    14935    15002 1
   15624    14935    15003 1
   15625    14935    15004 1
   15626    15005    15006 1
   15627    15005    15025 1
   15628    15005    15041 1
   15629    15005    15009 1
   15630    15006    15007 1
   15631    15006    15024 1
   15632    15007    15008 1
   15633    15007    15022 1
   15634    15008    15009 1
   15635    15008    15012 1
   15636    15009    15010 1
   15637    15010    15011 1
   15638    15010    15057 1
   15639    15011    15012 1
   15640    15011    15013 1
   15641    15013    15014 1
   15642    15013    15018 1
   15643    15014    15015 1
   15644    15014    15058 1
   15645    15015    15016 1
   15646    15016    15017 1
   15647    15017    15018 1
   15648    15017    15021 1
   15649    15018    15019 1
   15650    15019    15020 1
   15651    15020    15021 1
   15652    15022    15023 1
   15653    15023    15024 1
   15654    15023    15137 1
   15655    15024    15059 1
   15656    15025    15026 1
   15657    15025    15060 1
   15658    15025    15061 1
   15659    15026    15027 1
   15660    15026    15033 1
   15661    15026    15062 1
   15662    15027    15028 1
   15663    15027    15063 1
   15664    15027    15064 1
   15665    15028    15029 1
   15666    15028    15065 1
   15667    15028    15066 1
   15668    15029    15030 1
   15669    15029    15067 1
   15670    15029    15068 1
   15671    15030    15031 1
   15672    15030    15069 1
   15673    15030    15070 1
   15674    15031    15032 1
   15675    15031    15071 1
   15676    15031    15072 1
   15677    15032    15073 1
   15678    15032    15074 1
   15679    15032    15075 1
   15680    15033    15034 1
   15681    15033    15076 1
   15682    15033    15077 1
   15683    15034    15035 1
   15684    15034    15078 1
   15685    15034    15079 1
   15686    15035    15036 1
   15687    15035    15080 1
   15688    15035    15081 1
   15689    15036    15037 1
   15690    15036    15082 1
   15691    15036    15083 1
   15692    15037    15038 1
   15693    15037    15084 1
   15694    15037    15085 1
   15695    15038    15039 1
   15696    15038    15086 1
   15697    15038    15087 1
   15698    15039    15040 1
   15699    15039    15088 1
   15700    15039    15089 1
   15701    15040    15090 1
   15702    15040    15091 1
   15703    15040    15092 1
   15704    15041    15042 1
   15705    15041    15093 1
   15706    15041    15094 1
   15707    15042    15043 1
   15708    15042    15049 1
   15709    15042    15095 1
   15710    15043    15044 1
   15711    15043    15096 1
   15712    15043    15097 1
   15713    15044    15045 1
   15714    15044    15098 1
   15715    15044    15099 1
   15716    15045    15046 1
   15717    15045    15100 1
   15718    15045    15101 1
   15719    15046    15047 1
   15720    15046    15102 1
   15721    15046    15103 1
   15722    15047    15048 1
   15723    15047    15104 1
   15724    15047    15105 1
   15725    15048    15106 1
   15726    15048    15107 1
   15727    15048    15108 1
   15728    15049    15050 1
   15729    15049    15109 1
   15730    15049    15110 1
   15731    15050    15051 1
   15732    15050    15111 1
   15733    15050    15112 1
   15734    15051    15052 1
   15735    15051    15113 1
   15736    15051    15114 1
   15737    15052    15053 1
   15738    15052    15115 1
   15739    15052    15116 1
   15740    15053    15054 1
   15741    15053    15117 1
   15742    15053    15118 1
   15743    15054    15055 1
   15744    15054    15119 1
   15745    15054    15120 1
   15746    15055    15056 1
   15747    15055    15121 1
   15748    15055    15122 1
   15749    15056    15123 1
   15750    15056    15124 1
   15751    15056    15125 1
   15752    15126    15127 1
   15753    15126    15146 1
   15754    15126    15162 1
   15755    15126    15130 1
   15756    15127    15128 1
   15757    15127    15145 1
   15758    15128    15129 1
   15759    15128    15143 1
   15760    15129    15130 1
   15761    15129    15133 1
   15762    15130    15131 1
   15763    15131    15132 1
   15764    15131    15178 1
   15765    15132    15133 1
   15766    15132    15134 1
   15767    15134    15135 1
   15768    15134    15139 1
   15769    15135    15136 1
   15770    15135    15179 1
   15771    15136    15137 1
   15772    15137    15138 1
   15773    15138    15139 1
   15774    15138    15142 1
   15775    15139    15140 1
   15776    15140    15141 1
   15777    15141    15142 1
   15778    15143    15144 1
   15779    15144    15145 1
   15780    15144    15258 1
   15781    15145    15180 1
   15782    15146    15147 1
   15783    15146    15181 1
   15784    15146    15182 1
   15785    15147    15148 1
   15786    15147    15154 1
   15787    15147    15183 1
   15788    15148    15149 1
   15789    15148    15184 1
   15790    15148    15185 1
   15791    15149    15150 1
   15792    15149    15186 1
   15793    15149    15187 1
   15794    15150    15151 1
   15795    15150    15188 1
   15796    15150    15189 1
   15797    15151    15152 1
   15798    15151    15190 1
   15799    15151    15191 1
   15800    15152    15153 1
   15801    15152    15192 1
   15802    15152    15193 1
   15803    15153    15194 1
   15804    15153    15195 1
   15805    15153    15196 1
   15806    15154    15155 1
   15807    15154    15197 1
   15808    15154    15198 1
   15809    15155    15156 1
   15810    15155    15199 1
   15811    15155    15200 1
   15812    15156    15157 1
   15813    15156    15201 1
   15814    15156    15202 1
   15815    15157    15158 1
   15816    15157    15203 1
   15817    15157    15204 1
   15818    15158    15159 1
   15819    15158    15205 1
   15820    15158    15206 1
   15821    15159    15160 1
   15822    15159    15207 1
   15823    15159    15208 1
   15824    15160    15161 1
   15825    15160    15209 1
   15826    15160    15210 1
   15827    15161    15211 1
   15828    15161    15212 1
   15829    15161    15213 1
   15830    15162    15163 1
   15831    15162    15214 1
   15832    15162    15215 1
   15833    15163    15164 1
   15834    15163    15170 1
   15835    15163    15216 1
   15836    15164    15165 1
   15837    15164    15217 1
   15838    15164    15218 1
   15839    15165    15166 1
   15840    15165    15219 1
   15841    15165    15220 1
   15842    15166    15167 1
   15843    15166    15221 1
   15844    15166    15222 1
   15845    15167    15168 1
   15846    15167    15223 1
   15847    15167    15224 1
   15848    15168    15169 1
   15849    15168    15225 1
   15850    15168    15226 1
   15851    15169    15227 1
   15852    15169    15228 1
   15853    15169    15229 1
   15854    15170    15171 1
   15855    15170    15230 1
   15856    15170    15231 1
   15857    15171    15172 1
   15858    15171    15232 1
   15859    15171    15233 1
   15860    15172    15173 1
   15861    15172    15234 1
   15862    15172    15235 1
   15863    15173    15174 1
   15864    15173    15236 1
   15865    15173    15237 1
   15866    15174    15175 1
   15867    15174    15238 1
   15868    15174    15239 1
   15869    15175    15176 1
   15870    15175    15240 1
   15871    15175    15241 1
   15872    15176    15177 1
   15873    15176    15242 1
   15874    15176    15243 1
   15875    15177    15244 1
   15876    15177    15245 1
   15877    15177    15246 1
   15878    15247    15248 1
   15879    15247    15267 1
   15880    15247    15283 1
   15881    15247    15251 1
   15882    15248    15249 1
   15883    15248    15266 1
   15884    15249    15250 1
   15885    15249    15264 1
   15886    15250    15251 1
   15887    15250    15254 1
   15888    15251    15252 1
   15889    15252    15253 1
   15890    15252    15299 1
   15891    15253    15254 1
   15892    15253    15255 1
   15893    15255    15256 1
   15894    15255    15260 1
   15895    15256    15257 1
   15896    15256    15300 1
   15897    15257    15258 1
   15898    15258    15259 1
   15899    15259    15260 1
   15900    15259    15263 1
   15901    15260    15261 1
   15902    15261    15262 1
   15903    15262    15263 1
   15904    15264    15265 1
   15905    15265    15266 1
   15906    15265    15379 1
   15907    15266    15301 1
   15908    15267    15268 1
   15909    15267    15302 1
   15910    15267    15303 1
   15911    15268    15269 1
   15912    15268    15275 1
   15913    15268    15304 1
   15914    15269    15270 1
   15915    15269    15305 1
   15916    15269    15306 1
   15917    15270    15271 1
   15918    15270    15307 1
   15919    15270    15308 1
   15920    15271    15272 1
   15921    15271    15309 1
   15922    15271    15310 1
   15923    15272    15273 1
   15924    15272    15311 1
   15925    15272    15312 1
   15926    15273    15274 1
   15927    15273    15313 1
   15928    15273    15314 1
   15929    15274    15315 1
   15930    15274    15316 1
   15931    15274    15317 1
   15932    15275    15276 1
   15933    15275    15318 1
   15934    15275    15319 1
   15935    15276    15277 1
   15936    15276    15320 1
   15937    15276    15321 1
   15938    15277    15278 1
   15939    15277    15322 1
   15940    15277    15323 1
   15941    15278    15279 1
   15942    15278    15324 1
   15943    15278    15325 1
   15944    15279    15280 1
   15945    15279    15326 1
   15946    15279    15327 1
   15947    15280    15281 1
   15948    15280    15328 1
   15949    15280    15329 1
   15950    15281    15282 1
   15951    15281    15330 1
   15952    15281    15331 1
   15953    15282    15332 1
   15954    15282    15333 1
   15955    15282    15334 1
   15956    15283    15284 1
   15957    15283    15335 1
   15958    15283    15336 1
   15959    15284    15285 1
   15960    15284    15291 1
   15961    15284    15337 1
   15962    15285    15286 1
   15963    15285    15338 1
   15964    15285    15339 1
   15965    15286    15287 1
   15966    15286    15340 1
   15967    15286    15341 1
   15968    15287    15288 1
   15969    15287    15342 1
   15970    15287    15343 1
   15971    15288    15289 1
   15972    15288    15344 1
   15973    15288    15345 1
   15974    15289    15290 1
   15975    15289    15346 1
   15976    15289    15347 1
   15977    15290    15348 1
   15978    15290    15349 1
   15979    15290    15350 1
   15980    15291    15292 1
   15981    15291    15351 1
   15982    15291    15352 1
   15983    15292    15293 1
   15984    15292    15353 1
   15985    15292    15354 1
   15986    15293    15294 1
   15987    15293    15355 1
   15988    15293    15356 1
   15989    15294    15295 1
   15990    15294    15357 1
   15991    15294    15358 1
   15992    15295    15296 1
   15993    15295    15359 1
   15994    15295    15360 1
   15995    15296    15297 1
   15996    15296    15361 1
   15997    15296    15362 1
   15998    15297    15298 1
   15999    15297    15363 1
   16000    15297    15364 1
   16001    15298    15365 1
   16002    15298    15366 1
   16003    15298    15367 1
   16004    15368    15369 1
   16005    15368    15388 1
   16006    15368    15404 1
   16007    15368    15372 1
   16008    15369    15370 1
   16009    15369    15387 1
   16010    15370    15371 1
   16011    15370    15385 1
   16012    15371    15372 1
   16013    15371    15375 1
   16014    15372    15373 1
   16015    15373    15374 1
   16016    15373    15420 1
   16017    15374    15375 1
   16018    15374    15376 1
   16019    15376    15377 1
   16020    15376    15381 1
   16021    15377    15378 1
   16022    15377    15421 1
   16023    15378    15379 1
   16024    15379    15380 1
   16025    15380    15381 1
   16026    15380    15384 1
   16027    15381    15382 1
   16028    15382    15383 1
   16029    15383    15384 1
   16030    15385    15386 1
   16031    15386    15387 1
   16032    15386    15500 1
   16033    15387    15422 1
   16034    15388    15389 1
   16035    15388    15423 1
   16036    15388    15424 1
   16037    15389    15390 1
   16038    15389    15396 1
   16039    15389    15425 1
   16040    15390    15391 1
   16041    15390    15426 1
   16042    15390    15427 1
   16043    15391    15392 1
   16044    15391    15428 1
   16045    15391    15429 1
   16046    15392    15393 1
   16047    15392    15430 1
   16048    15392    15431 1
   16049    15393    15394 1
   16050    15393    15432 1
   16051    15393    15433 1
   16052    15394    15395 1
   16053    15394    15434 1
   16054    15394    15435 1
   16055    15395    15436 1
   16056    15395    15437 1
   16057    15395    15438 1
   16058    15396    15397 1
   16059    15396    15439 1
   16060    15396    15440 1
   16061    15397    15398 1
   16062    15397    15441 1
   16063    15397    15442 1
   16064    15398    15399 1
   16065    15398    15443 1
   16066    15398    15444 1
   16067    15399    15400 1
   16068    15399    15445 1
   16069    15399    15446 1
   16070    15400    15401 1
   16071    15400    15447 1
   16072    15400    15448 1
   16073    15401    15402 1
   16074    15401    15449 1
   16075    15401    15450 1
   16076    15402    15403 1
   16077    15402    15451 1
   16078    15402    15452 1
   16079    15403    15453 1
   16080    15403    15454 1
   16081    15403    15455 1
   16082    15404    15405 1
   16083    15404    15456 1
   16084    15404    15457 1
   16085    15405    15406 1
   16086    15405    15412 1
   16087    15405    15458 1
   16088    15406    15407 1
   16089    15406    15459 1
   16090    15406    15460 1
   16091    15407    15408 1
   16092    15407    15461 1
   16093    15407    15462 1
   16094    15408    15409 1
   16095    15408    15463 1
   16096    15408    15464 1
   16097    15409    15410 1
   16098    15409    15465 1
   16099    15409    15466 1
   16100    15410    15411 1
   16101    15410    15467 1
   16102    15410    15468 1
   16103    15411    15469 1
   16104    15411    15470 1
   16105    15411    15471 1
   16106    15412    15413 1
   16107    15412    15472 1
   16108    15412    15473 1
   16109    15413    15414 1
   16110    15413    15474 1
   16111    15413    15475 1
   16112    15414    15415 1
   16113    15414    15476 1
   16114    15414    15477 1
   16115    15415    15416 1
   16116    15415    15478 1
   16117    15415    15479 1
   16118    15416    15417 1
   16119    15416    15480 1
   16120    15416    15481 1
   16121    15417    15418 1
   16122    15417    15482 1
   16123    15417    15483 1
   16124    15418    15419 1
   16125    15418    15484 1
   16126    15418    15485 1
   16127    15419    15486 1
   16128    15419    15487 1
   16129    15419    15488 1
   16130    15489    15490 1
   16131    15489    15509 1
   16132    15489    15525 1
   16133    15489    15493 1
   16134    15490    15491 1
   16135    15490    15508 1
   16136    15491    15492 1
   16137    15491    15506 1
   16138    15492    15493 1
   16139    15492    15496 1
   16140    15493    15494 1
   16141    15494    15495 1
   16142    15494    15541 1
   16143    15495    15496 1
   16144    15495    15497 1
   16145    15497    15498 1
   16146    15497    15502 1
   16147    15498    15499 1
   16148    15498    15542 1
   16149    15499    15500 1
   16150    15500    15501 1
   16151    15501    15502 1
   16152    15501    15505 1
   16153    15502    15503 1
   16154    15503    15504 1
   16155    15504    15505 1
   16156    15506    15507 1
   16157    15507    15508 1
   16158    15507    15621 1
   16159    15508    15543 1
   16160    15509    15510 1
   16161    15509    15544 1
   16162    15509    15545 1
   16163    15510    15511 1
   16164    15510    15517 1
   16165    15510    15546 1
   16166    15511    15512 1
   16167    15511    15547 1
   16168    15511    15548 1
   16169    15512    15513 1
   16170    15512    15549 1
   16171    15512    15550 1
   16172    15513    15514 1
   16173    15513    15551 1
   16174    15513    15552 1
   16175    15514    15515 1
   16176    15514    15553 1
   16177    15514    15554 1
   16178    15515    15516 1
   16179    15515    15555 1
   16180    15515    15556 1
   16181    15516    15557 1
   16182    15516    15558 1
   16183    15516    15559 1
   16184    15517    15518 1
   16185    15517    15560 1
   16186    15517    15561 1
   16187    15518    15519 1
   16188    15518    15562 1
   16189    15518    15563 1
   16190    15519    15520 1
   16191    15519    15564 1
   16192    15519    15565 1
   16193    15520    15521 1
   16194    15520    15566 1
   16195    15520    15567 1
   16196    15521    15522 1
   16197    15521    15568 1
   16198    15521    15569 1
   16199    15522    15523 1
   16200    15522    15570 1
   16201    15522    15571 1
   16202    15523    15524 1
   16203    15523    15572 1
   16204    15523    15573 1
   16205    15524    15574 1
   16206    15524    15575 1
   16207    15524    15576 1
   16208    15525    15526 1
   16209    15525    15577 1
   16210    15525    15578 1
   16211    15526    15527 1
   16212    15526    15533 1
   16213    15526    15579 1
   16214    15527    15528 1
   16215    15527    15580 1
   16216    15527    15581 1
   16217    15528    15529 1
   16218    15528    15582 1
   16219    15528    15583 1
   16220    15529    15530 1
   16221    15529    15584 1
   16222    15529    15585 1
   16223    15530    15531 1
   16224    15530    15586 1
   16225    15530    15587 1
   16226    15531    15532 1
   16227    15531    15588 1
   16228    15531    15589 1
   16229    15532    15590 1
   16230    15532    15591 1
   16231    15532    15592 1
   16232    15533    15534 1
   16233    15533    15593 1
   16234    15533    15594 1
   16235    15534    15535 1
   16236    15534    15595 1
   16237    15534    15596 1
   16238    15535    15536 1
   16239    15535    15597 1
   16240    15535    15598 1
   16241    15536    15537 1
   16242    15536    15599 1
   16243    15536    15600 1
   16244    15537    15538 1
   16245    15537    15601 1
   16246    15537    15602 1
   16247    15538    15539 1
   16248    15538    15603 1
   16249    15538    15604 1
   16250    15539    15540 1
   16251    15539    15605 1
   16252    15539    15606 1
   16253    15540    15607 1
   16254    15540    15608 1
   16255    15540    15609 1
   16256    15610    15611 1
   16257    15610    15630 1
   16258    15610    15646 1
   16259    15610    15614 1
   16260    15611    15612 1
   16261    15611    15629 1
   16262    15612    15613 1
   16263    15612    15627 1
   16264    15613    15614 1
   16265    15613    15617 1
   16266    15614    15615 1
   16267    15615    15616 1
   16268    15615    15662 1
   16269    15616    15617 1
   16270    15616    15618 1
   16271    15618    15619 1
   16272    15618    15623 1
   16273    15619    15620 1
   16274    15619    15663 1
   16275    15620    15621 1
   16276    15621    15622 1
   16277    15622    15623 1
   16278    15622    15626 1
   16279    15623    15624 1
   16280    15624    15625 1
   16281    15625    15626 1
   16282    15627    15628 1
   16283    15628    15629 1
   16284    15628    15742 1
   16285    15629    15664 1
   16286    15630    15631 1
   16287    15630    15665 1
   16288    15630    15666 1
   16289    15631    15632 1
   16290    15631    15638 1
   16291    15631    15667 1
   16292    15632    15633 1
   16293    15632    15668 1
   16294    15632    15669 1
   16295    15633    15634 1
   16296    15633    15670 1
   16297    15633    15671 1
   16298    15634    15635 1
   16299    15634    15672 1
   16300    15634    15673 1
   16301    15635    15636 1
   16302    15635    15674 1
   16303    15635    15675 1
   16304    15636    15637 1
   16305    15636    15676 1
   16306    15636    15677 1
   16307    15637    15678 1
   16308    15637    15679 1
   16309    15637    15680 1
   16310    15638    15639 1
   16311    15638    15681 1
   16312    15638    15682 1
   16313    15639    15640 1
   16314    15639    15683 1
   16315    15639    15684 1
   16316    15640    15641 1
   16317    15640    15685 1
   16318    15640    15686 1
   16319    15641    15642 1
   16320    15641    15687 1
   16321    15641    15688 1
   16322    15642    15643 1
   16323    15642    15689 1
   16324    15642    15690 1
   16325    15643    15644 1
   16326    15643    15691 1
   16327    15643    15692 1
   16328    15644    15645 1
   16329    15644    15693 1
   16330    15644    15694 1
   16331    15645    15695 1
   16332    15645    15696 1
   16333    15645    15697 1
   16334    15646    15647 1
   16335    15646    15698 1
   16336    15646    15699 1
   16337    15647    15648 1
   16338    15647    15654 1
   16339    15647    15700 1
   16340    15648    15649 1
   16341    15648    15701 1
   16342    15648    15702 1
   16343    15649    15650 1
   16344    15649    15703 1
   16345    15649    15704 1
   16346    15650    15651 1
   16347    15650    15705 1
   16348    15650    15706 1
   16349    15651    15652 1
   16350    15651    15707 1
   16351    15651    15708 1
   16352    15652    15653 1
   16353    15652    15709 1
   16354    15652    15710 1
   16355    15653    15711 1
   16356    15653    15712 1
   16357    15653    15713 1
   16358    15654    15655 1
   16359    15654    15714 1
   16360    15654    15715 1
   16361    15655    15656 1
   16362    15655    15716 1
   16363    15655    15717 1
   16364    15656    15657 1
   16365    15656    15718 1
   16366    15656    15719 1
   16367    15657    15658 1
   16368    15657    15720 1
   16369    15657    15721 1
   16370    15658    15659 1
   16371    15658    15722 1
   16372    15658    15723 1
   16373    15659    15660 1
   16374    15659    15724 1
   16375    15659    15725 1
   16376    15660    15661 1
   16377    15660    15726 1
   16378    15660    15727 1
   16379    15661    15728 1
   16380    15661    15729 1
   16381    15661    15730 1
   16382    15731    15732 1
   16383    15731    15751 1
   16384    15731    15767 1
   16385    15731    15735 1
   16386    15732    15733 1
   16387    15732    15750 1
   16388    15733    15734 1
   16389    15733    15748 1
   16390    15734    15735 1
   16391    15734    15738 1
   16392    15735    15736 1
   16393    15736    15737 1
   16394    15736    15783 1
   16395    15737    15738 1
   16396    15737    15739 1
   16397    15739    15740 1
   16398    15739    15744 1
   16399    15740    15741 1
   16400    15740    15784 1
   16401    15741    15742 1
   16402    15742    15743 1
   16403    15743    15744 1
   16404    15743    15747 1
   16405    15744    15745 1
   16406    15745    15746 1
   16407    15746    15747 1
   16408    15748    15749 1
   16409    15749    15750 1
   16410    15749    15863 1
   16411    15750    15785 1
   16412    15751    15752 1
   16413    15751    15786 1
   16414    15751    15787 1
   16415    15752    15753 1
   16416    15752    15759 1
   16417    15752    15788 1
   16418    15753    15754 1
   16419    15753    15789 1
   16420    15753    15790 1
   16421    15754    15755 1
   16422    15754    15791 1
   16423    15754    15792 1
   16424    15755    15756 1
   16425    15755    15793 1
   16426    15755    15794 1
   16427    15756    15757 1
   16428    15756    15795 1
   16429    15756    15796 1
   16430    15757    15758 1
   16431    15757    15797 1
   16432    15757    15798 1
   16433    15758    15799 1
   16434    15758    15800 1
   16435    15758    15801 1
   16436    15759    15760 1
   16437    15759    15802 1
   16438    15759    15803 1
   16439    15760    15761 1
   16440    15760    15804 1
   16441    15760    15805 1
   16442    15761    15762 1
   16443    15761    15806 1
   16444    15761    15807 1
   16445    15762    15763 1
   16446    15762    15808 1
   16447    15762    15809 1
   16448    15763    15764 1
   16449    15763    15810 1
   16450    15763    15811 1
   16451    15764    15765 1
   16452    15764    15812 1
   16453    15764    15813 1
   16454    15765    15766 1
   16455    15765    15814 1
   16456    15765    15815 1
   16457    15766    15816 1
   16458    15766    15817 1
   16459    15766    15818 1
   16460    15767    15768 1
   16461    15767    15819 1
   16462    15767    15820 1
   16463    15768    15769 1
   16464    15768    15775 1
   16465    15768    15821 1
   16466    15769    15770 1
   16467    15769    15822 1
   16468    15769    15823 1
   16469    15770    15771 1
   16470    15770    15824 1
   16471    15770    15825 1
   16472    15771    15772 1
   16473    15771    15826 1
   16474    15771    15827 1
   16475    15772    15773 1
   16476    15772    15828 1
   16477    15772    15829 1
   16478    15773    15774 1
   16479    15773    15830 1
   16480    15773    15831 1
   16481    15774    15832 1
   16482    15774    15833 1
   16483    15774    15834 1
   16484    15775    15776 1
   16485    15775    15835 1
   16486    15775    15836 1
   16487    15776    15777 1
   16488    15776    15837 1
   16489    15776    15838 1
   16490    15777    15778 1
   16491    15777    15839 1
   16492    15777    15840 1
   16493    15778    15779 1
   16494    15778    15841 1
   16495    15778    15842 1
   16496    15779    15780 1
   16497    15779    15843 1
   16498    15779    15844 1
   16499    15780    15781 1
   16500    15780    15845 1
   16501    15780    15846 1
   16502    15781    15782 1
   16503    15781    15847 1
   16504    15781    15848 1
   16505    15782    15849 1
   16506    15782    15850 1
   16507    15782    15851 1
   16508    15852    15853 1
   16509    15852    15872 1
   16510    15852    15888 1
   16511    15852    15856 1
   16512    15853    15854 1
   16513    15853    15871 1
   16514    15854    15855 1
   16515    15854    15869 1
   16516    15855    15856 1
   16517    15855    15859 1
   16518    15856    15857 1
   16519    15857    15858 1
   16520    15857    15904 1
   16521    15858    15859 1
   16522    15858    15860 1
   16523    15860    15861 1
   16524    15860    15865 1
   16525    15861    15862 1
   16526    15861    15905 1
   16527    15862    15863 1
   16528    15863    15864 1
   16529    15864    15865 1
   16530    15864    15868 1
   16531    15865    15866 1
   16532    15866    15867 1
   16533    15867    15868 1
   16534    15869    15870 1
   16535    15870    15871 1
   16536    15870    15984 1
   16537    15871    15906 1
   16538    15872    15873 1
   16539    15872    15907 1
   16540    15872    15908 1
   16541    15873    15874 1
   16542    15873    15880 1
   16543    15873    15909 1
   16544    15874    15875 1
   16545    15874    15910 1
   16546    15874    15911 1
   16547    15875    15876 1
   16548    15875    15912 1
   16549    15875    15913 1
   16550    15876    15877 1
   16551    15876    15914 1
   16552    15876    15915 1
   16553    15877    15878 1
   16554    15877    15916 1
   16555    15877    15917 1
   16556    15878    15879 1
   16557    15878    15918 1
   16558    15878    15919 1
   16559    15879    15920 1
   16560    15879    15921 1
   16561    15879    15922 1
   16562    15880    15881 1
   16563    15880    15923 1
   16564    15880    15924 1
   16565    15881    15882 1
   16566    15881    15925 1
   16567    15881    15926 1
   16568    15882    15883 1
   16569    15882    15927 1
   16570    15882    15928 1
   16571    15883    15884 1
   16572    15883    15929 1
   16573    15883    15930 1
   16574    15884    15885 1
   16575    15884    15931 1
   16576    15884    15932 1
   16577    15885    15886 1
   16578    15885    15933 1
   16579    15885    15934 1
   16580    15886    15887 1
   16581    15886    15935 1
   16582    15886    15936 1
   16583    15887    15937 1
   16584    15887    15938 1
   16585    15887    15939 1
   16586    15888    15889 1
   16587    15888    15940 1
   16588    15888    15941 1
   16589    15889    15890 1
   16590    15889    15896 1
   16591    15889    15942 1
   16592    15890    15891 1
   16593    15890    15943 1
   16594    15890    15944 1
   16595    15891    15892 1
   16596    15891    15945 1
   16597    15891    15946 1
   16598    15892    15893 1
   16599    15892    15947 1
   16600    15892    15948 1
   16601    15893    15894 1
   16602    15893    15949 1
   16603    15893    15950 1
   16604    15894    15895 1
   16605    15894    15951 1
   16606    15894    15952 1
   16607    15895    15953 1
   16608    15895    15954 1
   16609    15895    15955 1
   16610    15896    15897 1
   16611    15896    15956 1
   16612    15896    15957 1
   16613    15897    15898 1
   16614    15897    15958 1
   16615    15897    15959 1
   16616    15898    15899 1
   16617    15898    15960 1
   16618    15898    15961 1
   16619    15899    15900 1
   16620    15899    15962 1
   16621    15899    15963 1
   16622    15900    15901 1
   16623    15900    15964 1
   16624    15900    15965 1
   16625    15901    15902 1
   16626    15901    15966 1
   16627    15901    15967 1
   16628    15902    15903 1
   16629    15902    15968 1
   16630    15902    15969 1
   16631    15903    15970 1
   16632    15903    15971 1
   16633    15903    15972 1
   16634    15973    15974 1
   16635    15973    15993 1
   16636    15973    16009 1
   16637    15973    15977 1
   16638    15974    15975 1
   16639    15974    15992 1
   16640    15975    15976 1
   16641    15975    15990 1
   16642    15976    15977 1
   16643    15976    15980 1
   16644    15977    15978 1
   16645    15978    15979 1
   16646    15978    16025 1
   16647    15979    15980 1
   16648    15979    15981 1
   16649    15981    15982 1
   16650    15981    15986 1
   16651    15982    15983 1
   16652    15982    16026 1
   16653    15983    15984 1
   16654    15984    15985 1
   16655    15985    15986 1
   16656    15985    15989 1
   16657    15986    15987 1
   16658    15987    15988 1
   16659    15988    15989 1
   16660    15990    15991 1
   16661    15991    15992 1
   16662    15991    16105 1
   16663    15992    16027 1
   16664    15993    15994 1
   16665    15993    16028 1
   16666    15993    16029 1
   16667    15994    15995 1
   16668    15994    16001 1
   16669    15994    16030 1
   16670    15995    15996 1
   16671    15995    16031 1
   16672    15995    16032 1
   16673    15996    15997 1
   16674    15996    16033 1
   16675    15996    16034 1
   16676    15997    15998 1
   16677    15997    16035 1
   16678    15997    16036 1
   16679    15998    15999 1
   16680    15998    16037 1
   16681    15998    16038 1
   16682    15999    16000 1
   16683    15999    16039 1
   16684    15999    16040 1
   16685    16000    16041 1
   16686    16000    16042 1
   16687    16000    16043 1
   16688    16001    16002 1
   16689    16001    16044 1
   16690    16001    16045 1
   16691    16002    16003 1
   16692    16002    16046 1
   16693    16002    16047 1
   16694    16003    16004 1
   16695    16003    16048 1
   16696    16003    16049 1
   16697    16004    16005 1
   16698    16004    16050 1
   16699    16004    16051 1
   16700    16005    16006 1
   16701    16005    16052 1
   16702    16005    16053 1
   16703    16006    16007 1
   16704    16006    16054 1
   16705    16006    16055 1
   16706    16007    16008 1
   16707    16007    16056 1
   16708    16007    16057 1
   16709    16008    16058 1
   16710    16008    16059 1
   16711    16008    16060 1
   16712    16009    16010 1
   16713    16009    16061 1
   16714    16009    16062 1
   16715    16010    16011 1
   16716    16010    16017 1
   16717    16010    16063 1
   16718    16011    16012 1
   16719    16011    16064 1
   16720    16011    16065 1
   16721    16012    16013 1
   16722    16012    16066 1
   16723    16012    16067 1
   16724    16013    16014 1
   16725    16013    16068 1
   16726    16013    16069 1
   16727    16014    16015 1
   16728    16014    16070 1
   16729    16014    16071 1
   16730    16015    16016 1
   16731    16015    16072 1
   16732    16015    16073 1
   16733    16016    16074 1
   16734    16016    16075 1
   16735    16016    16076 1
   16736    16017    16018 1
   16737    16017    16077 1
   16738    16017    16078 1
   16739    16018    16019 1
   16740    16018    16079 1
   16741    16018    16080 1
   16742    16019    16020 1
   16743    16019    16081 1
   16744    16019    16082 1
   16745    16020    16021 1
   16746    16020    16083 1
   16747    16020    16084 1
   16748    16021    16022 1
   16749    16021    16085 1
   16750    16021    16086 1
   16751    16022    16023 1
   16752    16022    16087 1
   16753    16022    16088 1
   16754    16023    16024 1
   16755    16023    16089 1
   16756    16023    16090 1
   16757    16024    16091 1
   16758    16024    16092 1
   16759    16024    16093 1
   16760    16094    16095 1
   16761    16094    16114 1
   16762    16094    16130 1
   16763    16094    16098 1
   16764    16095    16096 1
   16765    16095    16113 1
   16766    16096    16097 1
   16767    16096    16111 1
   16768    16097    16098 1
   16769    16097    16101 1
   16770    16098    16099 1
   16771    16099    16100 1
   16772    16099    16146 1
   16773    16100    16101 1
   16774    16100    16102 1
   16775    16102    16103 1
   16776    16102    16107 1
   16777    16103    16104 1
   16778    16103    16147 1
   16779    16104    16105 1
   16780    16105    16106 1
   16781    16106    16107 1
   16782    16106    16110 1
   16783    16107    16108 1
   16784    16108    16109 1
   16785    16109    16110 1
   16786    16111    16112 1
   16787    16112    16113 1
   16788    16112    16226 1
   16789    16113    16148 1
   16790    16114    16115 1
   16791    16114    16149 1
   16792    16114    16150 1
   16793    16115    16116 1
   16794    16115    16122 1
   16795    16115    16151 1
   16796    16116    16117 1
   16797    16116    16152 1
   16798    16116    16153 1
   16799    16117    16118 1
   16800    16117    16154 1
   16801    16117    16155 1
   16802    16118    16119 1
   16803    16118    16156 1
   16804    16118    16157 1
   16805    16119    16120 1
   16806    16119    16158 1
   16807    16119    16159 1
   16808    16120    16121 1
   16809    16120    16160 1
   16810    16120    16161 1
   16811    16121    16162 1
   16812    16121    16163 1
   16813    16121    16164 1
   16814    16122    16123 1
   16815    16122    16165 1
   16816    16122    16166 1
   16817    16123    16124 1
   16818    16123    16167 1
   16819    16123    16168 1
   16820    16124    16125 1
   16821    16124    16169 1
   16822    16124    16170 1
   16823    16125    16126 1
   16824    16125    16171 1
   16825    16125    16172 1
   16826    16126    16127 1
   16827    16126    16173 1
   16828    16126    16174 1
   16829    16127    16128 1
   16830    16127    16175 1
   16831    16127    16176 1
   16832    16128    16129 1
   16833    16128    16177 1
   16834    16128    16178 1
   16835    16129    16179 1
   16836    16129    16180 1
   16837    16129    16181 1
   16838    16130    16131 1
   16839    16130    16182 1
   16840    16130    16183 1
   16841    16131    16132 1
   16842    16131    16138 1
   16843    16131    16184 1
   16844    16132    16133 1
   16845    16132    16185 1
   16846    16132    16186 1
   16847    16133    16134 1
   16848    16133    16187 1
   16849    16133    16188 1
   16850    16134    16135 1
   16851    16134    16189 1
   16852    16134    16190 1
   16853    16135    16136 1
   16854    16135    16191 1
   16855    16135    16192 1
   16856    16136    16137 1
   16857    16136    16193 1
   16858    16136    16194 1
   16859    16137    16195 1
   16860    16137    16196 1
   16861    16137    16197 1
   16862    16138    16139 1
   16863    16138    16198 1
   16864    16138    16199 1
   16865    16139    16140 1
   16866    16139    16200 1
   16867    16139    16201 1
   16868    16140    16141 1
   16869    16140    16202 1
   16870    16140    16203 1
   16871    16141    16142 1
   16872    16141    16204 1
   16873    16141    16205 1
   16874    16142    16143 1
   16875    16142    16206 1
   16876    16142    16207 1
   16877    16143    16144 1
   16878    16143    16208 1
   16879    16143    16209 1
   16880    16144    16145 1
   16881    16144    16210 1
   16882    16144    16211 1
   16883    16145    16212 1
   16884    16145    16213 1
   16885    16145    16214 1
   16886    16215    16216 1
   16887    16215    16235 1
   16888    16215    16251 1
   16889    16215    16219 1
   16890    16216    16217 1
   16891    16216    16234 1
   16892    16217    16218 1
   16893    16217    16232 1
   16894    16218    16219 1
   16895    16218    16222 1
   16896    16219    16220 1
   16897    16220    16221 1
   16898    16220    16267 1
   16899    16221    16222 1
   16900    16221    16223 1
   16901    16223    16224 1
   16902    16223    16228 1
   16903    16224    16225 1
   16904    16224    16268 1
   16905    16225    16226 1
   16906    16226    16227 1
   16907    16227    16228 1
   16908    16227    16231 1
   16909    16228    16229 1
   16910    16229    16230 1
   16911    16230    16231 1
   16912    16232    16233 1
   16913    16233    16234 1
   16914    16233    16347 1
   16915    16234    16269 1
   16916    16235    16236 1
   16917    16235    16270 1
   16918    16235    16271 1
   16919    16236    16237 1
   16920    16236    16243 1
   16921    16236    16272 1
   16922    16237    16238 1
   16923    16237    16273 1
   16924    16237    16274 1
   16925    16238    16239 1
   16926    16238    16275 1
   16927    16238    16276 1
   16928    16239    16240 1
   16929    16239    16277 1
   16930    16239    16278 1
   16931    16240    16241 1
   16932    16240    16279 1
   16933    16240    16280 1
   16934    16241    16242 1
   16935    16241    16281 1
   16936    16241    16282 1
   16937    16242    16283 1
   16938    16242    16284 1
   16939    16242    16285 1
   16940    16243    16244 1
   16941    16243    16286 1
   16942    16243    16287 1
   16943    16244    16245 1
   16944    16244    16288 1
   16945    16244    16289 1
   16946    16245    16246 1
   16947    16245    16290 1
   16948    16245    16291 1
   16949    16246    16247 1
   16950    16246    16292 1
   16951    16246    16293 1
   16952    16247    16248 1
   16953    16247    16294 1
   16954    16247    16295 1
   16955    16248    16249 1
   16956    16248    16296 1
   16957    16248    16297 1
   16958    16249    16250 1
   16959    16249    16298 1
   16960    16249    16299 1
   16961    16250    16300 1
   16962    16250    16301 1
   16963    16250    16302 1
   16964    16251    16252 1
   16965    16251    16303 1
   16966    16251    16304 1
   16967    16252    16253 1
   16968    16252    16259 1
   16969    16252    16305 1
   16970    16253    16254 1
   16971    16253    16306 1
   16972    16253    16307 1
   16973    16254    16255 1
   16974    16254    16308 1
   16975    16254    16309 1
   16976    16255    16256 1
   16977    16255    16310 1
   16978    16255    16311 1
   16979    16256    16257 1
   16980    16256    16312 1
   16981    16256    16313 1
   16982    16257    16258 1
   16983    16257    16314 1
   16984    16257    16315 1
   16985    16258    16316 1
   16986    16258    16317 1
   16987    16258    16318 1
   16988    16259    16260 1
   16989    16259    16319 1
   16990    16259    16320 1
   16991    16260    16261 1
   16992    16260    16321 1
   16993    16260    16322 1
   16994    16261    16262 1
   16995    16261    16323 1
   16996    16261    16324 1
   16997    16262    16263 1
   16998    16262    16325 1
   16999    16262    16326 1
   17000    16263    16264 1
   17001    16263    16327 1
   17002    16263    16328 1
   17003    16264    16265 1
   17004    16264    16329 1
   17005    16264    16330 1
   17006    16265    16266 1
   17007    16265    16331 1
   17008    16265    16332 1
   17009    16266    16333 1
   17010    16266    16334 1
   17011    16266    16335 1
   17012    16336    16337 1
   17013    16336    16356 1
   17014    16336    16372 1
   17015    16336    16340 1
   17016    16337    16338 1
   17017    16337    16355 1
   17018    16338    16339 1
   17019    16338    16353 1
   17020    16339    16340 1
   17021    16339    16343 1
   17022    16340    16341 1
   17023    16341    16342 1
   17024    16341    16388 1
   17025    16342    16343 1
   17026    16342    16344 1
   17027    16344    16345 1
   17028    16344    16349 1
   17029    16345    16346 1
   17030    16345    16389 1
   17031    16346    16347 1
   17032    16347    16348 1
   17033    16348    16349 1
   17034    16348    16352 1
   17035    16349    16350 1
   17036    16350    16351 1
   17037    16351    16352 1
   17038    16353    16354 1
   17039    16354    16355 1
   17040    16354    16468 1
   17041    16355    16390 1
   17042    16356    16357 1
   17043    16356    16391 1
   17044    16356    16392 1
   17045    16357    16358 1
   17046    16357    16364 1
   17047    16357    16393 1
   17048    16358    16359 1
   17049    16358    16394 1
   17050    16358    16395 1
   17051    16359    16360 1
   17052    16359    16396 1
   17053    16359    16397 1
   17054    16360    16361 1
   17055    16360    16398 1
   17056    16360    16399 1
   17057    16361    16362 1
   17058    16361    16400 1
   17059    16361    16401 1
   17060    16362    16363 1
   17061    16362    16402 1
   17062    16362    16403 1
   17063    16363    16404 1
   17064    16363    16405 1
   17065    16363    16406 1
   17066    16364    16365 1
   17067    16364    16407 1
   17068    16364    16408 1
   17069    16365    16366 1
   17070    16365    16409 1
   17071    16365    16410 1
   17072    16366    16367 1
   17073    16366    16411 1
   17074    16366    16412 1
   17075    16367    16368 1
   17076    16367    16413 1
   17077    16367    16414 1
   17078    16368    16369 1
   17079    16368    16415 1
   17080    16368    16416 1
   17081    16369    16370 1
   17082    16369    16417 1
   17083    16369    16418 1
   17084    16370    16371 1
   17085    16370    16419 1
   17086    16370    16420 1
   17087    16371    16421 1
   17088    16371    16422 1
   17089    16371    16423 1
   17090    16372    16373 1
   17091    16372    16424 1
   17092    16372    16425 1
   17093    16373    16374 1
   17094    16373    16380 1
   17095    16373    16426 1
   17096    16374    16375 1
   17097    16374    16427 1
   17098    16374    16428 1
   17099    16375    16376 1
   17100    16375    16429 1
   17101    16375    16430 1
   17102    16376    16377 1
   17103    16376    16431 1
   17104    16376    16432 1
   17105    16377    16378 1
   17106    16377    16433 1
   17107    16377    16434 1
   17108    16378    16379 1
   17109    16378    16435 1
   17110    16378    16436 1
   17111    16379    16437 1
   17112    16379    16438 1
   17113    16379    16439 1
   17114    16380    16381 1
   17115    16380    16440 1
   17116    16380    16441 1
   17117    16381    16382 1
   17118    16381    16442 1
   17119    16381    16443 1
   17120    16382    16383 1
   17121    16382    16444 1
   17122    16382    16445 1
   17123    16383    16384 1
   17124    16383    16446 1
   17125    16383    16447 1
   17126    16384    16385 1
   17127    16384    16448 1
   17128    16384    16449 1
   17129    16385    16386 1
   17130    16385    16450 1
   17131    16385    16451 1
   17132    16386    16387 1
   17133    16386    16452 1
   17134    16386    16453 1
   17135    16387    16454 1
   17136    16387    16455 1
   17137    16387    16456 1
   17138    16457    16458 1
   17139    16457    16477 1
   17140    16457    16493 1
   17141    16457    16461 1
   17142    16458    16459 1
   17143    16458    16476 1
   17144    16459    16460 1
   17145    16459    16474 1
   17146    16460    16461 1
   17147    16460    16464 1
   17148    16461    16462 1
   17149    16462    16463 1
   17150    16462    16509 1
   17151    16463    16464 1
   17152    16463    16465 1
   17153    16465    16466 1
   17154    16465    16470 1
   17155    16466    16467 1
   17156    16466    16510 1
   17157    16467    16468 1
   17158    16468    16469 1
   17159    16469    16470 1
   17160    16469    16473 1
   17161    16470    16471 1
   17162    16471    16472 1
   17163    16472    16473 1
   17164    16474    16475 1
   17165    16475    16476 1
   17166    16475    16589 1
   17167    16476    16511 1
   17168    16477    16478 1
   17169    16477    16512 1
   17170    16477    16513 1
   17171    16478    16479 1
   17172    16478    16485 1
   17173    16478    16514 1
   17174    16479    16480 1
   17175    16479    16515 1
   17176    16479    16516 1
   17177    16480    16481 1
   17178    16480    16517 1
   17179    16480    16518 1
   17180    16481    16482 1
   17181    16481    16519 1
   17182    16481    16520 1
   17183    16482    16483 1
   17184    16482    16521 1
   17185    16482    16522 1
   17186    16483    16484 1
   17187    16483    16523 1
   17188    16483    16524 1
   17189    16484    16525 1
   17190    16484    16526 1
   17191    16484    16527 1
   17192    16485    16486 1
   17193    16485    16528 1
   17194    16485    16529 1
   17195    16486    16487 1
   17196    16486    16530 1
   17197    16486    16531 1
   17198    16487    16488 1
   17199    16487    16532 1
   17200    16487    16533 1
   17201    16488    16489 1
   17202    16488    16534 1
   17203    16488    16535 1
   17204    16489    16490 1
   17205    16489    16536 1
   17206    16489    16537 1
   17207    16490    16491 1
   17208    16490    16538 1
   17209    16490    16539 1
   17210    16491    16492 1
   17211    16491    16540 1
   17212    16491    16541 1
   17213    16492    16542 1
   17214    16492    16543 1
   17215    16492    16544 1
   17216    16493    16494 1
   17217    16493    16545 1
   17218    16493    16546 1
   17219    16494    16495 1
   17220    16494    16501 1
   17221    16494    16547 1
   17222    16495    16496 1
   17223    16495    16548 1
   17224    16495    16549 1
   17225    16496    16497 1
   17226    16496    16550 1
   17227    16496    16551 1
   17228    16497    16498 1
   17229    16497    16552 1
   17230    16497    16553 1
   17231    16498    16499 1
   17232    16498    16554 1
   17233    16498    16555 1
   17234    16499    16500 1
   17235    16499    16556 1
   17236    16499    16557 1
   17237    16500    16558 1
   17238    16500    16559 1
   17239    16500    16560 1
   17240    16501    16502 1
   17241    16501    16561 1
   17242    16501    16562 1
   17243    16502    16503 1
   17244    16502    16563 1
   17245    16502    16564 1
   17246    16503    16504 1
   17247    16503    16565 1
   17248    16503    16566 1
   17249    16504    16505 1
   17250    16504    16567 1
   17251    16504    16568 1
   17252    16505    16506 1
   17253    16505    16569 1
   17254    16505    16570 1
   17255    16506    16507 1
   17256    16506    16571 1
   17257    16506    16572 1
   17258    16507    16508 1
   17259    16507    16573 1
   17260    16507    16574 1
   17261    16508    16575 1
   17262    16508    16576 1
   17263    16508    16577 1
   17264    16578    16579 1
   17265    16578    16598 1
   17266    16578    16614 1
   17267    16578    16582 1
   17268    16579    16580 1
   17269    16579    16597 1
   17270    16580    16581 1
   17271    16580    16595 1
   17272    16581    16582 1
   17273    16581    16585 1
   17274    16582    16583 1
   17275    16583    16584 1
   17276    16583    16630 1
   17277    16584    16585 1
   17278    16584    16586 1
   17279    16586    16587 1
   17280    16586    16591 1
   17281    16587    16588 1
   17282    16587    16631 1
   17283    16588    16589 1
   17284    16589    16590 1
   17285    16590    16591 1
   17286    16590    16594 1
   17287    16591    16592 1
   17288    16592    16593 1
   17289    16593    16594 1
   17290    16595    16596 1
   17291    16596    16597 1
   17292    16596    16710 1
   17293    16597    16632 1
   17294    16598    16599 1
   17295    16598    16633 1
   17296    16598    16634 1
   17297    16599    16600 1
   17298    16599    16606 1
   17299    16599    16635 1
   17300    16600    16601 1
   17301    16600    16636 1
   17302    16600    16637 1
   17303    16601    16602 1
   17304    16601    16638 1
   17305    16601    16639 1
   17306    16602    16603 1
   17307    16602    16640 1
   17308    16602    16641 1
   17309    16603    16604 1
   17310    16603    16642 1
   17311    16603    16643 1
   17312    16604    16605 1
   17313    16604    16644 1
   17314    16604    16645 1
   17315    16605    16646 1
   17316    16605    16647 1
   17317    16605    16648 1
   17318    16606    16607 1
   17319    16606    16649 1
   17320    16606    16650 1
   17321    16607    16608 1
   17322    16607    16651 1
   17323    16607    16652 1
   17324    16608    16609 1
   17325    16608    16653 1
   17326    16608    16654 1
   17327    16609    16610 1
   17328    16609    16655 1
   17329    16609    16656 1
   17330    16610    16611 1
   17331    16610    16657 1
   17332    16610    16658 1
   17333    16611    16612 1
   17334    16611    16659 1
   17335    16611    16660 1
   17336    16612    16613 1
   17337    16612    16661 1
   17338    16612    16662 1
   17339    16613    16663 1
   17340    16613    16664 1
   17341    16613    16665 1
   17342    16614    16615 1
   17343    16614    16666 1
   17344    16614    16667 1
   17345    16615    16616 1
   17346    16615    16622 1
   17347    16615    16668 1
   17348    16616    16617 1
   17349    16616    16669 1
   17350    16616    16670 1
   17351    16617    16618 1
   17352    16617    16671 1
   17353    16617    16672 1
   17354    16618    16619 1
   17355    16618    16673 1
   17356    16618    16674 1
   17357    16619    16620 1
   17358    16619    16675 1
   17359    16619    16676 1
   17360    16620    16621 1
   17361    16620    16677 1
   17362    16620    16678 1
   17363    16621    16679 1
   17364    16621    16680 1
   17365    16621    16681 1
   17366    16622    16623 1
   17367    16622    16682 1
   17368    16622    16683 1
   17369    16623    16624 1
   17370    16623    16684 1
   17371    16623    16685 1
   17372    16624    16625 1
   17373    16624    16686 1
   17374    16624    16687 1
   17375    16625    16626 1
   17376    16625    16688 1
   17377    16625    16689 1
   17378    16626    16627 1
   17379    16626    16690 1
   17380    16626    16691 1
   17381    16627    16628 1
   17382    16627    16692 1
   17383    16627    16693 1
   17384    16628    16629 1
   17385    16628    16694 1
   17386    16628    16695 1
   17387    16629    16696 1
   17388    16629    16697 1
   17389    16629    16698 1
   17390    16699    16700 1
   17391    16699    16719 1
   17392    16699    16735 1
   17393    16699    16703 1
   17394    16700    16701 1
   17395    16700    16718 1
   17396    16701    16702 1
   17397    16701    16716 1
   17398    16702    16703 1
   17399    16702    16706 1
   17400    16703    16704 1
   17401    16704    16705 1
   17402    16704    16751 1
   17403    16705    16706 1
   17404    16705    16707 1
   17405    16707    16708 1
   17406    16707    16712 1
   17407    16708    16709 1
   17408    16708    16752 1
   17409    16709    16710 1
   17410    16710    16711 1
   17411    16711    16712 1
   17412    16711    16715 1
   17413    16712    16713 1
   17414    16713    16714 1
   17415    16714    16715 1
   17416    16716    16717 1
   17417    16717    16718 1
   17418    16717    16831 1
   17419    16718    16753 1
   17420    16719    16720 1
   17421    16719    16754 1
   17422    16719    16755 1
   17423    16720    16721 1
   17424    16720    16727 1
   17425    16720    16756 1
   17426    16721    16722 1
   17427    16721    16757 1
   17428    16721    16758 1
   17429    16722    16723 1
   17430    16722    16759 1
   17431    16722    16760 1
   17432    16723    16724 1
   17433    16723    16761 1
   17434    16723    16762 1
   17435    16724    16725 1
   17436    16724    16763 1
   17437    16724    16764 1
   17438    16725    16726 1
   17439    16725    16765 1
   17440    16725    16766 1
   17441    16726    16767 1
   17442    16726    16768 1
   17443    16726    16769 1
   17444    16727    16728 1
   17445    16727    16770 1
   17446    16727    16771 1
   17447    16728    16729 1
   17448    16728    16772 1
   17449    16728    16773 1
   17450    16729    16730 1
   17451    16729    16774 1
   17452    16729    16775 1
   17453    16730    16731 1
   17454    16730    16776 1
   17455    16730    16777 1
   17456    16731    16732 1
   17457    16731    16778 1
   17458    16731    16779 1
   17459    16732    16733 1
   17460    16732    16780 1
   17461    16732    16781 1
   17462    16733    16734 1
   17463    16733    16782 1
   17464    16733    16783 1
   17465    16734    16784 1
   17466    16734    16785 1
   17467    16734    16786 1
   17468    16735    16736 1
   17469    16735    16787 1
   17470    16735    16788 1
   17471    16736    16737 1
   17472    16736    16743 1
   17473    16736    16789 1
   17474    16737    16738 1
   17475    16737    16790 1
   17476    16737    16791 1
   17477    16738    16739 1
   17478    16738    16792 1
   17479    16738    16793 1
   17480    16739    16740 1
   17481    16739    16794 1
   17482    16739    16795 1
   17483    16740    16741 1
   17484    16740    16796 1
   17485    16740    16797 1
   17486    16741    16742 1
   17487    16741    16798 1
   17488    16741    16799 1
   17489    16742    16800 1
   17490    16742    16801 1
   17491    16742    16802 1
   17492    16743    16744 1
   17493    16743    16803 1
   17494    16743    16804 1
   17495    16744    16745 1
   17496    16744    16805 1
   17497    16744    16806 1
   17498    16745    16746 1
   17499    16745    16807 1
   17500    16745    16808 1
   17501    16746    16747 1
   17502    16746    16809 1
   17503    16746    16810 1
   17504    16747    16748 1
   17505    16747    16811 1
   17506    16747    16812 1
   17507    16748    16749 1
   17508    16748    16813 1
   17509    16748    16814 1
   17510    16749    16750 1
   17511    16749    16815 1
   17512    16749    16816 1
   17513    16750    16817 1
   17514    16750    16818 1
   17515    16750    16819 1
   17516    16820    16821 1
   17517    16820    16840 1
   17518    16820    16856 1
   17519    16820    16824 1
   17520    16821    16822 1
   17521    16821    16839 1
   17522    16822    16823 1
   17523    16822    16837 1
   17524    16823    16824 1
   17525    16823    16827 1
   17526    16824    16825 1
   17527    16825    16826 1
   17528    16825    16872 1
   17529    16826    16827 1
   17530    16826    16828 1
   17531    16828    16829 1
   17532    16828    16833 1
   17533    16829    16830 1
   17534    16829    16873 1
   17535    16830    16831 1
   17536    16831    16832 1
   17537    16832    16833 1
   17538    16832    16836 1
   17539    16833    16834 1
   17540    16834    16835 1
   17541    16835    16836 1
   17542    16837    16838 1
   17543    16838    16839 1
   17544    16838    16952 1
   17545    16839    16874 1
   17546    16840    16841 1
   17547    16840    16875 1
   17548    16840    16876 1
   17549    16841    16842 1
   17550    16841    16848 1
   17551    16841    16877 1
   17552    16842    16843 1
   17553    16842    16878 1
   17554    16842    16879 1
   17555    16843    16844 1
   17556    16843    16880 1
   17557    16843    16881 1
   17558    16844    16845 1
   17559    16844    16882 1
   17560    16844    16883 1
   17561    16845    16846 1
   17562    16845    16884 1
   17563    16845    16885 1
   17564    16846    16847 1
   17565    16846    16886 1
   17566    16846    16887 1
   17567    16847    16888 1
   17568    16847    16889 1
   17569    16847    16890 1
   17570    16848    16849 1
   17571    16848    16891 1
   17572    16848    16892 1
   17573    16849    16850 1
   17574    16849    16893 1
   17575    16849    16894 1
   17576    16850    16851 1
   17577    16850    16895 1
   17578    16850    16896 1
   17579    16851    16852 1
   17580    16851    16897 1
   17581    16851    16898 1
   17582    16852    16853 1
   17583    16852    16899 1
   17584    16852    16900 1
   17585    16853    16854 1
   17586    16853    16901 1
   17587    16853    16902 1
   17588    16854    16855 1
   17589    16854    16903 1
   17590    16854    16904 1
   17591    16855    16905 1
   17592    16855    16906 1
   17593    16855    16907 1
   17594    16856    16857 1
   17595    16856    16908 1
   17596    16856    16909 1
   17597    16857    16858 1
   17598    16857    16864 1
   17599    16857    16910 1
   17600    16858    16859 1
   17601    16858    16911 1
   17602    16858    16912 1
   17603    16859    16860 1
   17604    16859    16913 1
   17605    16859    16914 1
   17606    16860    16861 1
   17607    16860    16915 1
   17608    16860    16916 1
   17609    16861    16862 1
   17610    16861    16917 1
   17611    16861    16918 1
   17612    16862    16863 1
   17613    16862    16919 1
   17614    16862    16920 1
   17615    16863    16921 1
   17616    16863    16922 1
   17617    16863    16923 1
   17618    16864    16865 1
   17619    16864    16924 1
   17620    16864    16925 1
   17621    16865    16866 1
   17622    16865    16926 1
   17623    16865    16927 1
   17624    16866    16867 1
   17625    16866    16928 1
   17626    16866    16929 1
   17627    16867    16868 1
   17628    16867    16930 1
   17629    16867    16931 1
   17630    16868    16869 1
   17631    16868    16932 1
   17632    16868    16933 1
   17633    16869    16870 1
   17634    16869    16934 1
   17635    16869    16935 1
   17636    16870    16871 1
   17637    16870    16936 1
   17638    16870    16937 1
   17639    16871    16938 1
   17640    16871    16939 1
   17641    16871    16940 1
   17642    16941    16942 1
   17643    16941    16961 1
   17644    16941    16977 1
   17645    16941    16945 1
   17646    16942    16943 1
   17647    16942    16960 1
   17648    16943    16944 1
   17649    16943    16958 1
   17650    16944    16945 1
   17651    16944    16948 1
   17652    16945    16946 1
   17653    16946    16947 1
   17654    16946    16993 1
   17655    16947    16948 1
   17656    16947    16949 1
   17657    16949    16950 1
   17658    16949    16954 1
   17659    16950    16951 1
   17660    16950    16994 1
   17661    16951    16952 1
   17662    16952    16953 1
   17663    16953    16954 1
   17664    16953    16957 1
   17665    16954    16955 1
   17666    16955    16956 1
   17667    16956    16957 1
   17668    16958    16959 1
   17669    16959    16960 1
   17670    16959    17073 1
   17671    16960    16995 1
   17672    16961    16962 1
   17673    16961    16996 1
   17674    16961    16997 1
   17675    16962    16963 1
   17676    16962    16969 1
   17677    16962    16998 1
   17678    16963    16964 1
   17679    16963    16999 1
   17680    16963    17000 1
   17681    16964    16965 1
   17682    16964    17001 1
   17683    16964    17002 1
   17684    16965    16966 1
   17685    16965    17003 1
   17686    16965    17004 1
   17687    16966    16967 1
   17688    16966    17005 1
   17689    16966    17006 1
   17690    16967    16968 1
   17691    16967    17007 1
   17692    16967    17008 1
   17693    16968    17009 1
   17694    16968    17010 1
   17695    16968    17011 1
   17696    16969    16970 1
   17697    16969    17012 1
   17698    16969    17013 1
   17699    16970    16971 1
   17700    16970    17014 1
   17701    16970    17015 1
   17702    16971    16972 1
   17703    16971    17016 1
   17704    16971    17017 1
   17705    16972    16973 1
   17706    16972    17018 1
   17707    16972    17019 1
   17708    16973    16974 1
   17709    16973    17020 1
   17710    16973    17021 1
   17711    16974    16975 1
   17712    16974    17022 1
   17713    16974    17023 1
   17714    16975    16976 1
   17715    16975    17024 1
   17716    16975    17025 1
   17717    16976    17026 1
   17718    16976    17027 1
   17719    16976    17028 1
   17720    16977    16978 1
   17721    16977    17029 1
   17722    16977    17030 1
   17723    16978    16979 1
   17724    16978    16985 1
   17725    16978    17031 1
   17726    16979    16980 1
   17727    16979    17032 1
   17728    16979    17033 1
   17729    16980    16981 1
   17730    16980    17034 1
   17731    16980    17035 1
   17732    16981    16982 1
   17733    16981    17036 1
   17734    16981    17037 1
   17735    16982    16983 1
   17736    16982    17038 1
   17737    16982    17039 1
   17738    16983    16984 1
   17739    16983    17040 1
   17740    16983    17041 1
   17741    16984    17042 1
   17742    16984    17043 1
   17743    16984    17044 1
   17744    16985    16986 1
   17745    16985    17045 1
   17746    16985    17046 1
   17747    16986    16987 1
   17748    16986    17047 1
   17749    16986    17048 1
   17750    16987    16988 1
   17751    16987    17049 1
   17752    16987    17050 1
   17753    16988    16989 1
   17754    16988    17051 1
   17755    16988    17052 1
   17756    16989    16990 1
   17757    16989    17053 1
   17758    16989    17054 1
   17759    16990    16991 1
   17760    16990    17055 1
   17761    16990    17056 1
   17762    16991    16992 1
   17763    16991    17057 1
   17764    16991    17058 1
   17765    16992    17059 1
   17766    16992    17060 1
   17767    16992    17061 1
   17768    17062    17063 1
   17769    17062    17082 1
   17770    17062    17098 1
   17771    17062    17066 1
   17772    17063    17064 1
   17773    17063    17081 1
   17774    17064    17065 1
   17775    17064    17079 1
   17776    17065    17066 1
   17777    17065    17069 1
   17778    17066    17067 1
   17779    17067    17068 1
   17780    17067    17114 1
   17781    17068    17069 1
   17782    17068    17070 1
   17783    17070    17071 1
   17784    17070    17075 1
   17785    17071    17072 1
   17786    17071    17115 1
   17787    17072    17073 1
   17788    17073    17074 1
   17789    17074    17075 1
   17790    17074    17078 1
   17791    17075    17076 1
   17792    17076    17077 1
   17793    17077    17078 1
   17794    17079    17080 1
   17795    17080    17081 1
   17796    17080    17194 1
   17797    17081    17116 1
   17798    17082    17083 1
   17799    17082    17117 1
   17800    17082    17118 1
   17801    17083    17084 1
   17802    17083    17090 1
   17803    17083    17119 1
   17804    17084    17085 1
   17805    17084    17120 1
   17806    17084    17121 1
   17807    17085    17086 1
   17808    17085    17122 1
   17809    17085    17123 1
   17810    17086    17087 1
   17811    17086    17124 1
   17812    17086    17125 1
   17813    17087    17088 1
   17814    17087    17126 1
   17815    17087    17127 1
   17816    17088    17089 1
   17817    17088    17128 1
   17818    17088    17129 1
   17819    17089    17130 1
   17820    17089    17131 1
   17821    17089    17132 1
   17822    17090    17091 1
   17823    17090    17133 1
   17824    17090    17134 1
   17825    17091    17092 1
   17826    17091    17135 1
   17827    17091    17136 1
   17828    17092    17093 1
   17829    17092    17137 1
   17830    17092    17138 1
   17831    17093    17094 1
   17832    17093    17139 1
   17833    17093    17140 1
   17834    17094    17095 1
   17835    17094    17141 1
   17836    17094    17142 1
   17837    17095    17096 1
   17838    17095    17143 1
   17839    17095    17144 1
   17840    17096    17097 1
   17841    17096    17145 1
   17842    17096    17146 1
   17843    17097    17147 1
   17844    17097    17148 1
   17845    17097    17149 1
   17846    17098    17099 1
   17847    17098    17150 1
   17848    17098    17151 1
   17849    17099    17100 1
   17850    17099    17106 1
   17851    17099    17152 1
   17852    17100    17101 1
   17853    17100    17153 1
   17854    17100    17154 1
   17855    17101    17102 1
   17856    17101    17155 1
   17857    17101    17156 1
   17858    17102    17103 1
   17859    17102    17157 1
   17860    17102    17158 1
   17861    17103    17104 1
   17862    17103    17159 1
   17863    17103    17160 1
   17864    17104    17105 1
   17865    17104    17161 1
   17866    17104    17162 1
   17867    17105    17163 1
   17868    17105    17164 1
   17869    17105    17165 1
   17870    17106    17107 1
   17871    17106    17166 1
   17872    17106    17167 1
   17873    17107    17108 1
   17874    17107    17168 1
   17875    17107    17169 1
   17876    17108    17109 1
   17877    17108    17170 1
   17878    17108    17171 1
   17879    17109    17110 1
   17880    17109    17172 1
   17881    17109    17173 1
   17882    17110    17111 1
   17883    17110    17174 1
   17884    17110    17175 1
   17885    17111    17112 1
   17886    17111    17176 1
   17887    17111    17177 1
   17888    17112    17113 1
   17889    17112    17178 1
   17890    17112    17179 1
   17891    17113    17180 1
   17892    17113    17181 1
   17893    17113    17182 1
   17894    17183    17184 1
   17895    17183    17203 1
   17896    17183    17219 1
   17897    17183    17187 1
   17898    17184    17185 1
   17899    17184    17202 1
   17900    17185    17186 1
   17901    17185    17200 1
   17902    17186    17187 1
   17903    17186    17190 1
   17904    17187    17188 1
   17905    17188    17189 1
   17906    17188    17235 1
   17907    17189    17190 1
   17908    17189    17191 1
   17909    17191    17192 1
   17910    17191    17196 1
   17911    17192    17193 1
   17912    17192    17236 1
   17913    17193    17194 1
   17914    17194    17195 1
   17915    17195    17196 1
   17916    17195    17199 1
   17917    17196    17197 1
   17918    17197    17198 1
   17919    17198    17199 1
   17920    17200    17201 1
   17921    17201    17202 1
   17922    17201    17315 1
   17923    17202    17237 1
   17924    17203    17204 1
   17925    17203    17238 1
   17926    17203    17239 1
   17927    17204    17205 1
   17928    17204    17211 1
   17929    17204    17240 1
   17930    17205    17206 1
   17931    17205    17241 1
   17932    17205    17242 1
   17933    17206    17207 1
   17934    17206    17243 1
   17935    17206    17244 1
   17936    17207    17208 1
   17937    17207    17245 1
   17938    17207    17246 1
   17939    17208    17209 1
   17940    17208    17247 1
   17941    17208    17248 1
   17942    17209    17210 1
   17943    17209    17249 1
   17944    17209    17250 1
   17945    17210    17251 1
   17946    17210    17252 1
   17947    17210    17253 1
   17948    17211    17212 1
   17949    17211    17254 1
   17950    17211    17255 1
   17951    17212    17213 1
   17952    17212    17256 1
   17953    17212    17257 1
   17954    17213    17214 1
   17955    17213    17258 1
   17956    17213    17259 1
   17957    17214    17215 1
   17958    17214    17260 1
   17959    17214    17261 1
   17960    17215    17216 1
   17961    17215    17262 1
   17962    17215    17263 1
   17963    17216    17217 1
   17964    17216    17264 1
   17965    17216    17265 1
   17966    17217    17218 1
   17967    17217    17266 1
   17968    17217    17267 1
   17969    17218    17268 1
   17970    17218    17269 1
   17971    17218    17270 1
   17972    17219    17220 1
   17973    17219    17271 1
   17974    17219    17272 1
   17975    17220    17221 1
   17976    17220    17227 1
   17977    17220    17273 1
   17978    17221    17222 1
   17979    17221    17274 1
   17980    17221    17275 1
   17981    17222    17223 1
   17982    17222    17276 1
   17983    17222    17277 1
   17984    17223    17224 1
   17985    17223    17278 1
   17986    17223    17279 1
   17987    17224    17225 1
   17988    17224    17280 1
   17989    17224    17281 1
   17990    17225    17226 1
   17991    17225    17282 1
   17992    17225    17283 1
   17993    17226    17284 1
   17994    17226    17285 1
   17995    17226    17286 1
   17996    17227    17228 1
   17997    17227    17287 1
   17998    17227    17288 1
   17999    17228    17229 1
   18000    17228    17289 1
   18001    17228    17290 1
   18002    17229    17230 1
   18003    17229    17291 1
   18004    17229    17292 1
   18005    17230    17231 1
   18006    17230    17293 1
   18007    17230    17294 1
   18008    17231    17232 1
   18009    17231    17295 1
   18010    17231    17296 1
   18011    17232    17233 1
   18012    17232    17297 1
   18013    17232    17298 1
   18014    17233    17234 1
   18015    17233    17299 1
   18016    17233    17300 1
   18017    17234    17301 1
   18018    17234    17302 1
   18019    17234    17303 1
   18020    17304    17305 1
   18021    17304    17324 1
   18022    17304    17340 1
   18023    17304    17308 1
   18024    17305    17306 1
   18025    17305    17323 1
   18026    17306    17307 1
   18027    17306    17321 1
   18028    17307    17308 1
   18029    17307    17311 1
   18030    17308    17309 1
   18031    17309    17310 1
   18032    17309    17356 1
   18033    17310    17311 1
   18034    17310    17312 1
   18035    17312    17313 1
   18036    17312    17317 1
   18037    17313    17314 1
   18038    17313    17357 1
   18039    17314    17315 1
   18040    17315    17316 1
   18041    17316    17317 1
   18042    17316    17320 1
   18043    17317    17318 1
   18044    17318    17319 1
   18045    17319    17320 1
   18046    17321    17322 1
   18047    17322    17323 1
   18048    17322    17436 1
   18049    17323    17358 1
   18050    17324    17325 1
   18051    17324    17359 1
   18052    17324    17360 1
   18053    17325    17326 1
   18054    17325    17332 1
   18055    17325    17361 1
   18056    17326    17327 1
   18057    17326    17362 1
   18058    17326    17363 1
   18059    17327    17328 1
   18060    17327    17364 1
   18061    17327    17365 1
   18062    17328    17329 1
   18063    17328    17366 1
   18064    17328    17367 1
   18065    17329    17330 1
   18066    17329    17368 1
   18067    17329    17369 1
   18068    17330    17331 1
   18069    17330    17370 1
   18070    17330    17371 1
   18071    17331    17372 1
   18072    17331    17373 1
   18073    17331    17374 1
   18074    17332    17333 1
   18075    17332    17375 1
   18076    17332    17376 1
   18077    17333    17334 1
   18078    17333    17377 1
   18079    17333    17378 1
   18080    17334    17335 1
   18081    17334    17379 1
   18082    17334    17380 1
   18083    17335    17336 1
   18084    17335    17381 1
   18085    17335    17382 1
   18086    17336    17337 1
   18087    17336    17383 1
   18088    17336    17384 1
   18089    17337    17338 1
   18090    17337    17385 1
   18091    17337    17386 1
   18092    17338    17339 1
   18093    17338    17387 1
   18094    17338    17388 1
   18095    17339    17389 1
   18096    17339    17390 1
   18097    17339    17391 1
   18098    17340    17341 1
   18099    17340    17392 1
   18100    17340    17393 1
   18101    17341    17342 1
   18102    17341    17348 1
   18103    17341    17394 1
   18104    17342    17343 1
   18105    17342    17395 1
   18106    17342    17396 1
   18107    17343    17344 1
   18108    17343    17397 1
   18109    17343    17398 1
   18110    17344    17345 1
   18111    17344    17399 1
   18112    17344    17400 1
   18113    17345    17346 1
   18114    17345    17401 1
   18115    17345    17402 1
   18116    17346    17347 1
   18117    17346    17403 1
   18118    17346    17404 1
   18119    17347    17405 1
   18120    17347    17406 1
   18121    17347    17407 1
   18122    17348    17349 1
   18123    17348    17408 1
   18124    17348    17409 1
   18125    17349    17350 1
   18126    17349    17410 1
   18127    17349    17411 1
   18128    17350    17351 1
   18129    17350    17412 1
   18130    17350    17413 1
   18131    17351    17352 1
   18132    17351    17414 1
   18133    17351    17415 1
   18134    17352    17353 1
   18135    17352    17416 1
   18136    17352    17417 1
   18137    17353    17354 1
   18138    17353    17418 1
   18139    17353    17419 1
   18140    17354    17355 1
   18141    17354    17420 1
   18142    17354    17421 1
   18143    17355    17422 1
   18144    17355    17423 1
   18145    17355    17424 1
   18146    17425    17426 1
   18147    17425    17445 1
   18148    17425    17461 1
   18149    17425    17429 1
   18150    17426    17427 1
   18151    17426    17444 1
   18152    17427    17428 1
   18153    17427    17442 1
   18154    17428    17429 1
   18155    17428    17432 1
   18156    17429    17430 1
   18157    17430    17431 1
   18158    17430    17477 1
   18159    17431    17432 1
   18160    17431    17433 1
   18161    17433    17434 1
   18162    17433    17438 1
   18163    17434    17435 1
   18164    17434    17478 1
   18165    17435    17436 1
   18166    17436    17437 1
   18167    17437    17438 1
   18168    17437    17441 1
   18169    17438    17439 1
   18170    17439    17440 1
   18171    17440    17441 1
   18172    17442    17443 1
   18173    17443    17444 1
   18174    17443    17557 1
   18175    17444    17479 1
   18176    17445    17446 1
   18177    17445    17480 1
   18178    17445    17481 1
   18179    17446    17447 1
   18180    17446    17453 1
   18181    17446    17482 1
   18182    17447    17448 1
   18183    17447    17483 1
   18184    17447    17484 1
   18185    17448    17449 1
   18186    17448    17485 1
   18187    17448    17486 1
   18188    17449    17450 1
   18189    17449    17487 1
   18190    17449    17488 1
   18191    17450    17451 1
   18192    17450    17489 1
   18193    17450    17490 1
   18194    17451    17452 1
   18195    17451    17491 1
   18196    17451    17492 1
   18197    17452    17493 1
   18198    17452    17494 1
   18199    17452    17495 1
   18200    17453    17454 1
   18201    17453    17496 1
   18202    17453    17497 1
   18203    17454    17455 1
   18204    17454    17498 1
   18205    17454    17499 1
   18206    17455    17456 1
   18207    17455    17500 1
   18208    17455    17501 1
   18209    17456    17457 1
   18210    17456    17502 1
   18211    17456    17503 1
   18212    17457    17458 1
   18213    17457    17504 1
   18214    17457    17505 1
   18215    17458    17459 1
   18216    17458    17506 1
   18217    17458    17507 1
   18218    17459    17460 1
   18219    17459    17508 1
   18220    17459    17509 1
   18221    17460    17510 1
   18222    17460    17511 1
   18223    17460    17512 1
   18224    17461    17462 1
   18225    17461    17513 1
   18226    17461    17514 1
   18227    17462    17463 1
   18228    17462    17469 1
   18229    17462    17515 1
   18230    17463    17464 1
   18231    17463    17516 1
   18232    17463    17517 1
   18233    17464    17465 1
   18234    17464    17518 1
   18235    17464    17519 1
   18236    17465    17466 1
   18237    17465    17520 1
   18238    17465    17521 1
   18239    17466    17467 1
   18240    17466    17522 1
   18241    17466    17523 1
   18242    17467    17468 1
   18243    17467    17524 1
   18244    17467    17525 1
   18245    17468    17526 1
   18246    17468    17527 1
   18247    17468    17528 1
   18248    17469    17470 1
   18249    17469    17529 1
   18250    17469    17530 1
   18251    17470    17471 1
   18252    17470    17531 1
   18253    17470    17532 1
   18254    17471    17472 1
   18255    17471    17533 1
   18256    17471    17534 1
   18257    17472    17473 1
   18258    17472    17535 1
   18259    17472    17536 1
   18260    17473    17474 1
   18261    17473    17537 1
   18262    17473    17538 1
   18263    17474    17475 1
   18264    17474    17539 1
   18265    17474    17540 1
   18266    17475    17476 1
   18267    17475    17541 1
   18268    17475    17542 1
   18269    17476    17543 1
   18270    17476    17544 1
   18271    17476    17545 1
   18272    17546    17547 1
   18273    17546    17566 1
   18274    17546    17582 1
   18275    17546    17550 1
   18276    17547    17548 1
   18277    17547    17565 1
   18278    17548    17549 1
   18279    17548    17563 1
   18280    17549    17550 1
   18281    17549    17553 1
   18282    17550    17551 1
   18283    17551    17552 1
   18284    17551    17598 1
   18285    17552    17553 1
   18286    17552    17554 1
   18287    17554    17555 1
   18288    17554    17559 1
   18289    17555    17556 1
   18290    17555    17599 1
   18291    17556    17557 1
   18292    17557    17558 1
   18293    17558    17559 1
   18294    17558    17562 1
   18295    17559    17560 1
   18296    17560    17561 1
   18297    17561    17562 1
   18298    17563    17564 1
   18299    17564    17565 1
   18300    17564    17678 1
   18301    17565    17600 1
   18302    17566    17567 1
   18303    17566    17601 1
   18304    17566    17602 1
   18305    17567    17568 1
   18306    17567    17574 1
   18307    17567    17603 1
   18308    17568    17569 1
   18309    17568    17604 1
   18310    17568    17605 1
   18311    17569    17570 1
   18312    17569    17606 1
   18313    17569    17607 1
   18314    17570    17571 1
   18315    17570    17608 1
   18316    17570    17609 1
   18317    17571    17572 1
   18318    17571    17610 1
   18319    17571    17611 1
   18320    17572    17573 1
   18321    17572    17612 1
   18322    17572    17613 1
   18323    17573    17614 1
   18324    17573    17615 1
   18325    17573    17616 1
   18326    17574    17575 1
   18327    17574    17617 1
   18328    17574    17618 1
   18329    17575    17576 1
   18330    17575    17619 1
   18331    17575    17620 1
   18332    17576    17577 1
   18333    17576    17621 1
   18334    17576    17622 1
   18335    17577    17578 1
   18336    17577    17623 1
   18337    17577    17624 1
   18338    17578    17579 1
   18339    17578    17625 1
   18340    17578    17626 1
   18341    17579    17580 1
   18342    17579    17627 1
   18343    17579    17628 1
   18344    17580    17581 1
   18345    17580    17629 1
   18346    17580    17630 1
   18347    17581    17631 1
   18348    17581    17632 1
   18349    17581    17633 1
   18350    17582    17583 1
   18351    17582    17634 1
   18352    17582    17635 1
   18353    17583    17584 1
   18354    17583    17590 1
   18355    17583    17636 1
   18356    17584    17585 1
   18357    17584    17637 1
   18358    17584    17638 1
   18359    17585    17586 1
   18360    17585    17639 1
   18361    17585    17640 1
   18362    17586    17587 1
   18363    17586    17641 1
   18364    17586    17642 1
   18365    17587    17588 1
   18366    17587    17643 1
   18367    17587    17644 1
   18368    17588    17589 1
   18369    17588    17645 1
   18370    17588    17646 1
   18371    17589    17647 1
   18372    17589    17648 1
   18373    17589    17649 1
   18374    17590    17591 1
   18375    17590    17650 1
   18376    17590    17651 1
   18377    17591    17592 1
   18378    17591    17652 1
   18379    17591    17653 1
   18380    17592    17593 1
   18381    17592    17654 1
   18382    17592    17655 1
   18383    17593    17594 1
   18384    17593    17656 1
   18385    17593    17657 1
   18386    17594    17595 1
   18387    17594    17658 1
   18388    17594    17659 1
   18389    17595    17596 1
   18390    17595    17660 1
   18391    17595    17661 1
   18392    17596    17597 1
   18393    17596    17662 1
   18394    17596    17663 1
   18395    17597    17664 1
   18396    17597    17665 1
   18397    17597    17666 1
   18398    17667    17668 1
   18399    17667    17687 1
   18400    17667    17703 1
   18401    17667    17671 1
   18402    17668    17669 1
   18403    17668    17686 1
   18404    17669    17670 1
   18405    17669    17684 1
   18406    17670    17671 1
   18407    17670    17674 1
   18408    17671    17672 1
   18409    17672    17673 1
   18410    17672    17719 1
   18411    17673    17674 1
   18412    17673    17675 1
   18413    17675    17676 1
   18414    17675    17680 1
   18415    17676    17677 1
   18416    17676    17720 1
   18417    17677    17678 1
   18418    17678    17679 1
   18419    17679    17680 1
   18420    17679    17683 1
   18421    17680    17681 1
   18422    17681    17682 1
   18423    17682    17683 1
   18424    17684    17685 1
   18425    17685    17686 1
   18426    17685    17799 1
   18427    17686    17721 1
   18428    17687    17688 1
   18429    17687    17722 1
   18430    17687    17723 1
   18431    17688    17689 1
   18432    17688    17695 1
   18433    17688    17724 1
   18434    17689    17690 1
   18435    17689    17725 1
   18436    17689    17726 1
   18437    17690    17691 1
   18438    17690    17727 1
   18439    17690    17728 1
   18440    17691    17692 1
   18441    17691    17729 1
   18442    17691    17730 1
   18443    17692    17693 1
   18444    17692    17731 1
   18445    17692    17732 1
   18446    17693    17694 1
   18447    17693    17733 1
   18448    17693    17734 1
   18449    17694    17735 1
   18450    17694    17736 1
   18451    17694    17737 1
   18452    17695    17696 1
   18453    17695    17738 1
   18454    17695    17739 1
   18455    17696    17697 1
   18456    17696    17740 1
   18457    17696    17741 1
   18458    17697    17698 1
   18459    17697    17742 1
   18460    17697    17743 1
   18461    17698    17699 1
   18462    17698    17744 1
   18463    17698    17745 1
   18464    17699    17700 1
   18465    17699    17746 1
   18466    17699    17747 1
   18467    17700    17701 1
   18468    17700    17748 1
   18469    17700    17749 1
   18470    17701    17702 1
   18471    17701    17750 1
   18472    17701    17751 1
   18473    17702    17752 1
   18474    17702    17753 1
   18475    17702    17754 1
   18476    17703    17704 1
   18477    17703    17755 1
   18478    17703    17756 1
   18479    17704    17705 1
   18480    17704    17711 1
   18481    17704    17757 1
   18482    17705    17706 1
   18483    17705    17758 1
   18484    17705    17759 1
   18485    17706    17707 1
   18486    17706    17760 1
   18487    17706    17761 1
   18488    17707    17708 1
   18489    17707    17762 1
   18490    17707    17763 1
   18491    17708    17709 1
   18492    17708    17764 1
   18493    17708    17765 1
   18494    17709    17710 1
   18495    17709    17766 1
   18496    17709    17767 1
   18497    17710    17768 1
   18498    17710    17769 1
   18499    17710    17770 1
   18500    17711    17712 1
   18501    17711    17771 1
   18502    17711    17772 1
   18503    17712    17713 1
   18504    17712    17773 1
   18505    17712    17774 1
   18506    17713    17714 1
   18507    17713    17775 1
   18508    17713    17776 1
   18509    17714    17715 1
   18510    17714    17777 1
   18511    17714    17778 1
   18512    17715    17716 1
   18513    17715    17779 1
   18514    17715    17780 1
   18515    17716    17717 1
   18516    17716    17781 1
   18517    17716    17782 1
   18518    17717    17718 1
   18519    17717    17783 1
   18520    17717    17784 1
   18521    17718    17785 1
   18522    17718    17786 1
   18523    17718    17787 1
   18524    17788    17789 1
   18525    17788    17808 1
   18526    17788    17824 1
   18527    17788    17792 1
   18528    17789    17790 1
   18529    17789    17807 1
   18530    17790    17791 1
   18531    17790    17805 1
   18532    17791    17792 1
   18533    17791    17795 1
   18534    17792    17793 1
   18535    17793    17794 1
   18536    17793    17840 1
   18537    17794    17795 1
   18538    17794    17796 1
   18539    17796    17797 1
   18540    17796    17801 1
   18541    17797    17798 1
   18542    17797    17841 1
   18543    17798    17799 1
   18544    17799    17800 1
   18545    17800    17801 1
   18546    17800    17804 1
   18547    17801    17802 1
   18548    17802    17803 1
   18549    17803    17804 1
   18550    17805    17806 1
   18551    17806    17807 1
   18552    17806    17920 1
   18553    17807    17842 1
   18554    17808    17809 1
   18555    17808    17843 1
   18556    17808    17844 1
   18557    17809    17810 1
   18558    17809    17816 1
   18559    17809    17845 1
   18560    17810    17811 1
   18561    17810    17846 1
   18562    17810    17847 1
   18563    17811    17812 1
   18564    17811    17848 1
   18565    17811    17849 1
   18566    17812    17813 1
   18567    17812    17850 1
   18568    17812    17851 1
   18569    17813    17814 1
   18570    17813    17852 1
   18571    17813    17853 1
   18572    17814    17815 1
   18573    17814    17854 1
   18574    17814    17855 1
   18575    17815    17856 1
   18576    17815    17857 1
   18577    17815    17858 1
   18578    17816    17817 1
   18579    17816    17859 1
   18580    17816    17860 1
   18581    17817    17818 1
   18582    17817    17861 1
   18583    17817    17862 1
   18584    17818    17819 1
   18585    17818    17863 1
   18586    17818    17864 1
   18587    17819    17820 1
   18588    17819    17865 1
   18589    17819    17866 1
   18590    17820    17821 1
   18591    17820    17867 1
   18592    17820    17868 1
   18593    17821    17822 1
   18594    17821    17869 1
   18595    17821    17870 1
   18596    17822    17823 1
   18597    17822    17871 1
   18598    17822    17872 1
   18599    17823    17873 1
   18600    17823    17874 1
   18601    17823    17875 1
   18602    17824    17825 1
   18603    17824    17876 1
   18604    17824    17877 1
   18605    17825    17826 1
   18606    17825    17832 1
   18607    17825    17878 1
   18608    17826    17827 1
   18609    17826    17879 1
   18610    17826    17880 1
   18611    17827    17828 1
   18612    17827    17881 1
   18613    17827    17882 1
   18614    17828    17829 1
   18615    17828    17883 1
   18616    17828    17884 1
   18617    17829    17830 1
   18618    17829    17885 1
   18619    17829    17886 1
   18620    17830    17831 1
   18621    17830    17887 1
   18622    17830    17888 1
   18623    17831    17889 1
   18624    17831    17890 1
   18625    17831    17891 1
   18626    17832    17833 1
   18627    17832    17892 1
   18628    17832    17893 1
   18629    17833    17834 1
   18630    17833    17894 1
   18631    17833    17895 1
   18632    17834    17835 1
   18633    17834    17896 1
   18634    17834    17897 1
   18635    17835    17836 1
   18636    17835    17898 1
   18637    17835    17899 1
   18638    17836    17837 1
   18639    17836    17900 1
   18640    17836    17901 1
   18641    17837    17838 1
   18642    17837    17902 1
   18643    17837    17903 1
   18644    17838    17839 1
   18645    17838    17904 1
   18646    17838    17905 1
   18647    17839    17906 1
   18648    17839    17907 1
   18649    17839    17908 1
   18650    17909    17910 1
   18651    17909    17929 1
   18652    17909    17945 1
   18653    17909    17913 1
   18654    17910    17911 1
   18655    17910    17928 1
   18656    17911    17912 1
   18657    17911    17926 1
   18658    17912    17913 1
   18659    17912    17916 1
   18660    17913    17914 1
   18661    17914    17915 1
   18662    17914    17961 1
   18663    17915    17916 1
   18664    17915    17917 1
   18665    17917    17918 1
   18666    17917    17922 1
   18667    17918    17919 1
   18668    17918    17962 1
   18669    17919    17920 1
   18670    17920    17921 1
   18671    17921    17922 1
   18672    17921    17925 1
   18673    17922    17923 1
   18674    17923    17924 1
   18675    17924    17925 1
   18676    17926    17927 1
   18677    17927    17928 1
   18678    17927    18041 1
   18679    17928    17963 1
   18680    17929    17930 1
   18681    17929    17964 1
   18682    17929    17965 1
   18683    17930    17931 1
   18684    17930    17937 1
   18685    17930    17966 1
   18686    17931    17932 1
   18687    17931    17967 1
   18688    17931    17968 1
   18689    17932    17933 1
   18690    17932    17969 1
   18691    17932    17970 1
   18692    17933    17934 1
   18693    17933    17971 1
   18694    17933    17972 1
   18695    17934    17935 1
   18696    17934    17973 1
   18697    17934    17974 1
   18698    17935    17936 1
   18699    17935    17975 1
   18700    17935    17976 1
   18701    17936    17977 1
   18702    17936    17978 1
   18703    17936    17979 1
   18704    17937    17938 1
   18705    17937    17980 1
   18706    17937    17981 1
   18707    17938    17939 1
   18708    17938    17982 1
   18709    17938    17983 1
   18710    17939    17940 1
   18711    17939    17984 1
   18712    17939    17985 1
   18713    17940    17941 1
   18714    17940    17986 1
   18715    17940    17987 1
   18716    17941    17942 1
   18717    17941    17988 1
   18718    17941    17989 1
   18719    17942    17943 1
   18720    17942    17990 1
   18721    17942    17991 1
   18722    17943    17944 1
   18723    17943    17992 1
   18724    17943    17993 1
   18725    17944    17994 1
   18726    17944    17995 1
   18727    17944    17996 1
   18728    17945    17946 1
   18729    17945    17997 1
   18730    17945    17998 1
   18731    17946    17947 1
   18732    17946    17953 1
   18733    17946    17999 1
   18734    17947    17948 1
   18735    17947    18000 1
   18736    17947    18001 1
   18737    17948    17949 1
   18738    17948    18002 1
   18739    17948    18003 1
   18740    17949    17950 1
   18741    17949    18004 1
   18742    17949    18005 1
   18743    17950    17951 1
   18744    17950    18006 1
   18745    17950    18007 1
   18746    17951    17952 1
   18747    17951    18008 1
   18748    17951    18009 1
   18749    17952    18010 1
   18750    17952    18011 1
   18751    17952    18012 1
   18752    17953    17954 1
   18753    17953    18013 1
   18754    17953    18014 1
   18755    17954    17955 1
   18756    17954    18015 1
   18757    17954    18016 1
   18758    17955    17956 1
   18759    17955    18017 1
   18760    17955    18018 1
   18761    17956    17957 1
   18762    17956    18019 1
   18763    17956    18020 1
   18764    17957    17958 1
   18765    17957    18021 1
   18766    17957    18022 1
   18767    17958    17959 1
   18768    17958    18023 1
   18769    17958    18024 1
   18770    17959    17960 1
   18771    17959    18025 1
   18772    17959    18026 1
   18773    17960    18027 1
   18774    17960    18028 1
   18775    17960    18029 1
   18776    18030    18031 1
   18777    18030    18050 1
   18778    18030    18066 1
   18779    18030    18034 1
   18780    18031    18032 1
   18781    18031    18049 1
   18782    18032    18033 1
   18783    18032    18047 1
   18784    18033    18034 1
   18785    18033    18037 1
   18786    18034    18035 1
   18787    18035    18036 1
   18788    18035    18082 1
   18789    18036    18037 1
   18790    18036    18038 1
   18791    18038    18039 1
   18792    18038    18043 1
   18793    18039    18040 1
   18794    18039    18083 1
   18795    18040    18041 1
   18796    18041    18042 1
   18797    18042    18043 1
   18798    18042    18046 1
   18799    18043    18044 1
   18800    18044    18045 1
   18801    18045    18046 1
   18802    18047    18048 1
   18803    18048    18049 1
   18804    18048    18162 1
   18805    18049    18084 1
   18806    18050    18051 1
   18807    18050    18085 1
   18808    18050    18086 1
   18809    18051    18052 1
   18810    18051    18058 1
   18811    18051    18087 1
   18812    18052    18053 1
   18813    18052    18088 1
   18814    18052    18089 1
   18815    18053    18054 1
   18816    18053    18090 1
   18817    18053    18091 1
   18818    18054    18055 1
   18819    18054    18092 1
   18820    18054    18093 1
   18821    18055    18056 1
   18822    18055    18094 1
   18823    18055    18095 1
   18824    18056    18057 1
   18825    18056    18096 1
   18826    18056    18097 1
   18827    18057    18098 1
   18828    18057    18099 1
   18829    18057    18100 1
   18830    18058    18059 1
   18831    18058    18101 1
   18832    18058    18102 1
   18833    18059    18060 1
   18834    18059    18103 1
   18835    18059    18104 1
   18836    18060    18061 1
   18837    18060    18105 1
   18838    18060    18106 1
   18839    18061    18062 1
   18840    18061    18107 1
   18841    18061    18108 1
   18842    18062    18063 1
   18843    18062    18109 1
   18844    18062    18110 1
   18845    18063    18064 1
   18846    18063    18111 1
   18847    18063    18112 1
   18848    18064    18065 1
   18849    18064    18113 1
   18850    18064    18114 1
   18851    18065    18115 1
   18852    18065    18116 1
   18853    18065    18117 1
   18854    18066    18067 1
   18855    18066    18118 1
   18856    18066    18119 1
   18857    18067    18068 1
   18858    18067    18074 1
   18859    18067    18120 1
   18860    18068    18069 1
   18861    18068    18121 1
   18862    18068    18122 1
   18863    18069    18070 1
   18864    18069    18123 1
   18865    18069    18124 1
   18866    18070    18071 1
   18867    18070    18125 1
   18868    18070    18126 1
   18869    18071    18072 1
   18870    18071    18127 1
   18871    18071    18128 1
   18872    18072    18073 1
   18873    18072    18129 1
   18874    18072    18130 1
   18875    18073    18131 1
   18876    18073    18132 1
   18877    18073    18133 1
   18878    18074    18075 1
   18879    18074    18134 1
   18880    18074    18135 1
   18881    18075    18076 1
   18882    18075    18136 1
   18883    18075    18137 1
   18884    18076    18077 1
   18885    18076    18138 1
   18886    18076    18139 1
   18887    18077    18078 1
   18888    18077    18140 1
   18889    18077    18141 1
   18890    18078    18079 1
   18891    18078    18142 1
   18892    18078    18143 1
   18893    18079    18080 1
   18894    18079    18144 1
   18895    18079    18145 1
   18896    18080    18081 1
   18897    18080    18146 1
   18898    18080    18147 1
   18899    18081    18148 1
   18900    18081    18149 1
   18901    18081    18150 1
   18902    18151    18152 1
   18903    18151    18171 1
   18904    18151    18187 1
   18905    18151    18155 1
   18906    18152    18153 1
   18907    18152    18170 1
   18908    18153    18154 1
   18909    18153    18168 1
   18910    18154    18155 1
   18911    18154    18158 1
   18912    18155    18156 1
   18913    18156    18157 1
   18914    18156    18203 1
   18915    18157    18158 1
   18916    18157    18159 1
   18917    18159    18160 1
   18918    18159    18164 1
   18919    18160    18161 1
   18920    18160    18204 1
   18921    18161    18162 1
   18922    18162    18163 1
   18923    18163    18164 1
   18924    18163    18167 1
   18925    18164    18165 1
   18926    18165    18166 1
   18927    18166    18167 1
   18928    18168    18169 1
   18929    18169    18170 1
   18930    18169    18283 1
   18931    18170    18205 1
   18932    18171    18172 1
   18933    18171    18206 1
   18934    18171    18207 1
   18935    18172    18173 1
   18936    18172    18179 1
   18937    18172    18208 1
   18938    18173    18174 1
   18939    18173    18209 1
   18940    18173    18210 1
   18941    18174    18175 1
   18942    18174    18211 1
   18943    18174    18212 1
   18944    18175    18176 1
   18945    18175    18213 1
   18946    18175    18214 1
   18947    18176    18177 1
   18948    18176    18215 1
   18949    18176    18216 1
   18950    18177    18178 1
   18951    18177    18217 1
   18952    18177    18218 1
   18953    18178    18219 1
   18954    18178    18220 1
   18955    18178    18221 1
   18956    18179    18180 1
   18957    18179    18222 1
   18958    18179    18223 1
   18959    18180    18181 1
   18960    18180    18224 1
   18961    18180    18225 1
   18962    18181    18182 1
   18963    18181    18226 1
   18964    18181    18227 1
   18965    18182    18183 1
   18966    18182    18228 1
   18967    18182    18229 1
   18968    18183    18184 1
   18969    18183    18230 1
   18970    18183    18231 1
   18971    18184    18185 1
   18972    18184    18232 1
   18973    18184    18233 1
   18974    18185    18186 1
   18975    18185    18234 1
   18976    18185    18235 1
   18977    18186    18236 1
   18978    18186    18237 1
   18979    18186    18238 1
   18980    18187    18188 1
   18981    18187    18239 1
   18982    18187    18240 1
   18983    18188    18189 1
   18984    18188    18195 1
   18985    18188    18241 1
   18986    18189    18190 1
   18987    18189    18242 1
   18988    18189    18243 1
   18989    18190    18191 1
   18990    18190    18244 1
   18991    18190    18245 1
   18992    18191    18192 1
   18993    18191    18246 1
   18994    18191    18247 1
   18995    18192    18193 1
   18996    18192    18248 1
   18997    18192    18249 1
   18998    18193    18194 1
   18999    18193    18250 1
   19000    18193    18251 1
   19001    18194    18252 1
   19002    18194    18253 1
   19003    18194    18254 1
   19004    18195    18196 1
   19005    18195    18255 1
   19006    18195    18256 1
   19007    18196    18197 1
   19008    18196    18257 1
   19009    18196    18258 1
   19010    18197    18198 1
   19011    18197    18259 1
   19012    18197    18260 1
   19013    18198    18199 1
   19014    18198    18261 1
   19015    18198    18262 1
   19016    18199    18200 1
   19017    18199    18263 1
   19018    18199    18264 1
   19019    18200    18201 1
   19020    18200    18265 1
   19021    18200    18266 1
   19022    18201    18202 1
   19023    18201    18267 1
   19024    18201    18268 1
   19025    18202    18269 1
   19026    18202    18270 1
   19027    18202    18271 1
   19028    18272    18273 1
   19029    18272    18292 1
   19030    18272    18308 1
   19031    18272    18276 1
   19032    18273    18274 1
   19033    18273    18291 1
   19034    18274    18275 1
   19035    18274    18289 1
   19036    18275    18276 1
   19037    18275    18279 1
   19038    18276    18277 1
   19039    18277    18278 1
   19040    18277    18324 1
   19041    18278    18279 1
   19042    18278    18280 1
   19043    18280    18281 1
   19044    18280    18285 1
   19045    18281    18282 1
   19046    18281    18325 1
   19047    18282    18283 1
   19048    18283    18284 1
   19049    18284    18285 1
   19050    18284    18288 1
   19051    18285    18286 1
   19052    18286    18287 1
   19053    18287    18288 1
   19054    18289    18290 1
   19055    18290    18291 1
   19056    18290    18404 1
   19057    18291    18326 1
   19058    18292    18293 1
   19059    18292    18327 1
   19060    18292    18328 1
   19061    18293    18294 1
   19062    18293    18300 1
   19063    18293    18329 1
   19064    18294    18295 1
   19065    18294    18330 1
   19066    18294    18331 1
   19067    18295    18296 1
   19068    18295    18332 1
   19069    18295    18333 1
   19070    18296    18297 1
   19071    18296    18334 1
   19072    18296    18335 1
   19073    18297    18298 1
   19074    18297    18336 1
   19075    18297    18337 1
   19076    18298    18299 1
   19077    18298    18338 1
   19078    18298    18339 1
   19079    18299    18340 1
   19080    18299    18341 1
   19081    18299    18342 1
   19082    18300    18301 1
   19083    18300    18343 1
   19084    18300    18344 1
   19085    18301    18302 1
   19086    18301    18345 1
   19087    18301    18346 1
   19088    18302    18303 1
   19089    18302    18347 1
   19090    18302    18348 1
   19091    18303    18304 1
   19092    18303    18349 1
   19093    18303    18350 1
   19094    18304    18305 1
   19095    18304    18351 1
   19096    18304    18352 1
   19097    18305    18306 1
   19098    18305    18353 1
   19099    18305    18354 1
   19100    18306    18307 1
   19101    18306    18355 1
   19102    18306    18356 1
   19103    18307    18357 1
   19104    18307    18358 1
   19105    18307    18359 1
   19106    18308    18309 1
   19107    18308    18360 1
   19108    18308    18361 1
   19109    18309    18310 1
   19110    18309    18316 1
   19111    18309    18362 1
   19112    18310    18311 1
   19113    18310    18363 1
   19114    18310    18364 1
   19115    18311    18312 1
   19116    18311    18365 1
   19117    18311    18366 1
   19118    18312    18313 1
   19119    18312    18367 1
   19120    18312    18368 1
   19121    18313    18314 1
   19122    18313    18369 1
   19123    18313    18370 1
   19124    18314    18315 1
   19125    18314    18371 1
   19126    18314    18372 1
   19127    18315    18373 1
   19128    18315    18374 1
   19129    18315    18375 1
   19130    18316    18317 1
   19131    18316    18376 1
   19132    18316    18377 1
   19133    18317    18318 1
   19134    18317    18378 1
   19135    18317    18379 1
   19136    18318    18319 1
   19137    18318    18380 1
   19138    18318    18381 1
   19139    18319    18320 1
   19140    18319    18382 1
   19141    18319    18383 1
   19142    18320    18321 1
   19143    18320    18384 1
   19144    18320    18385 1
   19145    18321    18322 1
   19146    18321    18386 1
   19147    18321    18387 1
   19148    18322    18323 1
   19149    18322    18388 1
   19150    18322    18389 1
   19151    18323    18390 1
   19152    18323    18391 1
   19153    18323    18392 1
   19154    18393    18394 1
   19155    18393    18413 1
   19156    18393    18429 1
   19157    18393    18397 1
   19158    18394    18395 1
   19159    18394    18412 1
   19160    18395    18396 1
   19161    18395    18410 1
   19162    18396    18397 1
   19163    18396    18400 1
   19164    18397    18398 1
   19165    18398    18399 1
   19166    18398    18445 1
   19167    18399    18400 1
   19168    18399    18401 1
   19169    18401    18402 1
   19170    18401    18406 1
   19171    18402    18403 1
   19172    18402    18446 1
   19173    18403    18404 1
   19174    18404    18405 1
   19175    18405    18406 1
   19176    18405    18409 1
   19177    18406    18407 1
   19178    18407    18408 1
   19179    18408    18409 1
   19180    18410    18411 1
   19181    18411    18412 1
   19182    18411    18525 1
   19183    18412    18447 1
   19184    18413    18414 1
   19185    18413    18448 1
   19186    18413    18449 1
   19187    18414    18415 1
   19188    18414    18421 1
   19189    18414    18450 1
   19190    18415    18416 1
   19191    18415    18451 1
   19192    18415    18452 1
   19193    18416    18417 1
   19194    18416    18453 1
   19195    18416    18454 1
   19196    18417    18418 1
   19197    18417    18455 1
   19198    18417    18456 1
   19199    18418    18419 1
   19200    18418    18457 1
   19201    18418    18458 1
   19202    18419    18420 1
   19203    18419    18459 1
   19204    18419    18460 1
   19205    18420    18461 1
   19206    18420    18462 1
   19207    18420    18463 1
   19208    18421    18422 1
   19209    18421    18464 1
   19210    18421    18465 1
   19211    18422    18423 1
   19212    18422    18466 1
   19213    18422    18467 1
   19214    18423    18424 1
   19215    18423    18468 1
   19216    18423    18469 1
   19217    18424    18425 1
   19218    18424    18470 1
   19219    18424    18471 1
   19220    18425    18426 1
   19221    18425    18472 1
   19222    18425    18473 1
   19223    18426    18427 1
   19224    18426    18474 1
   19225    18426    18475 1
   19226    18427    18428 1
   19227    18427    18476 1
   19228    18427    18477 1
   19229    18428    18478 1
   19230    18428    18479 1
   19231    18428    18480 1
   19232    18429    18430 1
   19233    18429    18481 1
   19234    18429    18482 1
   19235    18430    18431 1
   19236    18430    18437 1
   19237    18430    18483 1
   19238    18431    18432 1
   19239    18431    18484 1
   19240    18431    18485 1
   19241    18432    18433 1
   19242    18432    18486 1
   19243    18432    18487 1
   19244    18433    18434 1
   19245    18433    18488 1
   19246    18433    18489 1
   19247    18434    18435 1
   19248    18434    18490 1
   19249    18434    18491 1
   19250    18435    18436 1
   19251    18435    18492 1
   19252    18435    18493 1
   19253    18436    18494 1
   19254    18436    18495 1
   19255    18436    18496 1
   19256    18437    18438 1
   19257    18437    18497 1
   19258    18437    18498 1
   19259    18438    18439 1
   19260    18438    18499 1
   19261    18438    18500 1
   19262    18439    18440 1
   19263    18439    18501 1
   19264    18439    18502 1
   19265    18440    18441 1
   19266    18440    18503 1
   19267    18440    18504 1
   19268    18441    18442 1
   19269    18441    18505 1
   19270    18441    18506 1
   19271    18442    18443 1
   19272    18442    18507 1
   19273    18442    18508 1
   19274    18443    18444 1
   19275    18443    18509 1
   19276    18443    18510 1
   19277    18444    18511 1
   19278    18444    18512 1
   19279    18444    18513 1
   19280    18514    18515 1
   19281    18514    18534 1
   19282    18514    18550 1
   19283    18514    18518 1
   19284    18515    18516 1
   19285    18515    18533 1
   19286    18516    18517 1
   19287    18516    18531 1
   19288    18517    18518 1
   19289    18517    18521 1
   19290    18518    18519 1
   19291    18519    18520 1
   19292    18519    18566 1
   19293    18520    18521 1
   19294    18520    18522 1
   19295    18522    18523 1
   19296    18522    18527 1
   19297    18523    18524 1
   19298    18523    18567 1
   19299    18524    18525 1
   19300    18525    18526 1
   19301    18526    18527 1
   19302    18526    18530 1
   19303    18527    18528 1
   19304    18528    18529 1
   19305    18529    18530 1
   19306    18531    18532 1
   19307    18532    18533 1
   19308    18532    18646 1
   19309    18533    18568 1
   19310    18534    18535 1
   19311    18534    18569 1
   19312    18534    18570 1
   19313    18535    18536 1
   19314    18535    18542 1
   19315    18535    18571 1
   19316    18536    18537 1
   19317    18536    18572 1
   19318    18536    18573 1
   19319    18537    18538 1
   19320    18537    18574 1
   19321    18537    18575 1
   19322    18538    18539 1
   19323    18538    18576 1
   19324    18538    18577 1
   19325    18539    18540 1
   19326    18539    18578 1
   19327    18539    18579 1
   19328    18540    18541 1
   19329    18540    18580 1
   19330    18540    18581 1
   19331    18541    18582 1
   19332    18541    18583 1
   19333    18541    18584 1
   19334    18542    18543 1
   19335    18542    18585 1
   19336    18542    18586 1
   19337    18543    18544 1
   19338    18543    18587 1
   19339    18543    18588 1
   19340    18544    18545 1
   19341    18544    18589 1
   19342    18544    18590 1
   19343    18545    18546 1
   19344    18545    18591 1
   19345    18545    18592 1
   19346    18546    18547 1
   19347    18546    18593 1
   19348    18546    18594 1
   19349    18547    18548 1
   19350    18547    18595 1
   19351    18547    18596 1
   19352    18548    18549 1
   19353    18548    18597 1
   19354    18548    18598 1
   19355    18549    18599 1
   19356    18549    18600 1
   19357    18549    18601 1
   19358    18550    18551 1
   19359    18550    18602 1
   19360    18550    18603 1
   19361    18551    18552 1
   19362    18551    18558 1
   19363    18551    18604 1
   19364    18552    18553 1
   19365    18552    18605 1
   19366    18552    18606 1
   19367    18553    18554 1
   19368    18553    18607 1
   19369    18553    18608 1
   19370    18554    18555 1
   19371    18554    18609 1
   19372    18554    18610 1
   19373    18555    18556 1
   19374    18555    18611 1
   19375    18555    18612 1
   19376    18556    18557 1
   19377    18556    18613 1
   19378    18556    18614 1
   19379    18557    18615 1
   19380    18557    18616 1
   19381    18557    18617 1
   19382    18558    18559 1
   19383    18558    18618 1
   19384    18558    18619 1
   19385    18559    18560 1
   19386    18559    18620 1
   19387    18559    18621 1
   19388    18560    18561 1
   19389    18560    18622 1
   19390    18560    18623 1
   19391    18561    18562 1
   19392    18561    18624 1
   19393    18561    18625 1
   19394    18562    18563 1
   19395    18562    18626 1
   19396    18562    18627 1
   19397    18563    18564 1
   19398    18563    18628 1
   19399    18563    18629 1
   19400    18564    18565 1
   19401    18564    18630 1
   19402    18564    18631 1
   19403    18565    18632 1
   19404    18565    18633 1
   19405    18565    18634 1
   19406    18635    18636 1
   19407    18635    18655 1
   19408    18635    18671 1
   19409    18635    18639 1
   19410    18636    18637 1
   19411    18636    18654 1
   19412    18637    18638 1
   19413    18637    18652 1
   19414    18638    18639 1
   19415    18638    18642 1
   19416    18639    18640 1
   19417    18640    18641 1
   19418    18640    18687 1
   19419    18641    18642 1
   19420    18641    18643 1
   19421    18643    18644 1
   19422    18643    18648 1
   19423    18644    18645 1
   19424    18644    18688 1
   19425    18645    18646 1
   19426    18646    18647 1
   19427    18647    18648 1
   19428    18647    18651 1
   19429    18648    18649 1
   19430    18649    18650 1
   19431    18650    18651 1
   19432    18652    18653 1
   19433    18653    18654 1
   19434    18653    18767 1
   19435    18654    18689 1
   19436    18655    18656 1
   19437    18655    18690 1
   19438    18655    18691 1
   19439    18656    18657 1
   19440    18656    18663 1
   19441    18656    18692 1
   19442    18657    18658 1
   19443    18657    18693 1
   19444    18657    18694 1
   19445    18658    18659 1
   19446    18658    18695 1
   19447    18658    18696 1
   19448    18659    18660 1
   19449    18659    18697 1
   19450    18659    18698 1
   19451    18660    18661 1
   19452    18660    18699 1
   19453    18660    18700 1
   19454    18661    18662 1
   19455    18661    18701 1
   19456    18661    18702 1
   19457    18662    18703 1
   19458    18662    18704 1
   19459    18662    18705 1
   19460    18663    18664 1
   19461    18663    18706 1
   19462    18663    18707 1
   19463    18664    18665 1
   19464    18664    18708 1
   19465    18664    18709 1
   19466    18665    18666 1
   19467    18665    18710 1
   19468    18665    18711 1
   19469    18666    18667 1
   19470    18666    18712 1
   19471    18666    18713 1
   19472    18667    18668 1
   19473    18667    18714 1
   19474    18667    18715 1
   19475    18668    18669 1
   19476    18668    18716 1
   19477    18668    18717 1
   19478    18669    18670 1
   19479    18669    18718 1
   19480    18669    18719 1
   19481    18670    18720 1
   19482    18670    18721 1
   19483    18670    18722 1
   19484    18671    18672 1
   19485    18671    18723 1
   19486    18671    18724 1
   19487    18672    18673 1
   19488    18672    18679 1
   19489    18672    18725 1
   19490    18673    18674 1
   19491    18673    18726 1
   19492    18673    18727 1
   19493    18674    18675 1
   19494    18674    18728 1
   19495    18674    18729 1
   19496    18675    18676 1
   19497    18675    18730 1
   19498    18675    18731 1
   19499    18676    18677 1
   19500    18676    18732 1
   19501    18676    18733 1
   19502    18677    18678 1
   19503    18677    18734 1
   19504    18677    18735 1
   19505    18678    18736 1
   19506    18678    18737 1
   19507    18678    18738 1
   19508    18679    18680 1
   19509    18679    18739 1
   19510    18679    18740 1
   19511    18680    18681 1
   19512    18680    18741 1
   19513    18680    18742 1
   19514    18681    18682 1
   19515    18681    18743 1
   19516    18681    18744 1
   19517    18682    18683 1
   19518    18682    18745 1
   19519    18682    18746 1
   19520    18683    18684 1
   19521    18683    18747 1
   19522    18683    18748 1
   19523    18684    18685 1
   19524    18684    18749 1
   19525    18684    18750 1
   19526    18685    18686 1
   19527    18685    18751 1
   19528    18685    18752 1
   19529    18686    18753 1
   19530    18686    18754 1
   19531    18686    18755 1
   19532    18756    18757 1
   19533    18756    18776 1
   19534    18756    18792 1
   19535    18756    18760 1
   19536    18757    18758 1
   19537    18757    18775 1
   19538    18758    18759 1
   19539    18758    18773 1
   19540    18759    18760 1
   19541    18759    18763 1
   19542    18760    18761 1
   19543    18761    18762 1
   19544    18761    18808 1
   19545    18762    18763 1
   19546    18762    18764 1
   19547    18764    18765 1
   19548    18764    18769 1
   19549    18765    18766 1
   19550    18765    18809 1
   19551    18766    18767 1
   19552    18767    18768 1
   19553    18768    18769 1
   19554    18768    18772 1
   19555    18769    18770 1
   19556    18770    18771 1
   19557    18771    18772 1
   19558    18773    18774 1
   19559    18774    18775 1
   19560    18774    18888 1
   19561    18775    18810 1
   19562    18776    18777 1
   19563    18776    18811 1
   19564    18776    18812 1
   19565    18777    18778 1
   19566    18777    18784 1
   19567    18777    18813 1
   19568    18778    18779 1
   19569    18778    18814 1
   19570    18778    18815 1
   19571    18779    18780 1
   19572    18779    18816 1
   19573    18779    18817 1
   19574    18780    18781 1
   19575    18780    18818 1
   19576    18780    18819 1
   19577    18781    18782 1
   19578    18781    18820 1
   19579    18781    18821 1
   19580    18782    18783 1
   19581    18782    18822 1
   19582    18782    18823 1
   19583    18783    18824 1
   19584    18783    18825 1
   19585    18783    18826 1
   19586    18784    18785 1
   19587    18784    18827 1
   19588    18784    18828 1
   19589    18785    18786 1
   19590    18785    18829 1
   19591    18785    18830 1
   19592    18786    18787 1
   19593    18786    18831 1
   19594    18786    18832 1
   19595    18787    18788 1
   19596    18787    18833 1
   19597    18787    18834 1
   19598    18788    18789 1
   19599    18788    18835 1
   19600    18788    18836 1
   19601    18789    18790 1
   19602    18789    18837 1
   19603    18789    18838 1
   19604    18790    18791 1
   19605    18790    18839 1
   19606    18790    18840 1
   19607    18791    18841 1
   19608    18791    18842 1
   19609    18791    18843 1
   19610    18792    18793 1
   19611    18792    18844 1
   19612    18792    18845 1
   19613    18793    18794 1
   19614    18793    18800 1
   19615    18793    18846 1
   19616    18794    18795 1
   19617    18794    18847 1
   19618    18794    18848 1
   19619    18795    18796 1
   19620    18795    18849 1
   19621    18795    18850 1
   19622    18796    18797 1
   19623    18796    18851 1
   19624    18796    18852 1
   19625    18797    18798 1
   19626    18797    18853 1
   19627    18797    18854 1
   19628    18798    18799 1
   19629    18798    18855 1
   19630    18798    18856 1
   19631    18799    18857 1
   19632    18799    18858 1
   19633    18799    18859 1
   19634    18800    18801 1
   19635    18800    18860 1
   19636    18800    18861 1
   19637    18801    18802 1
   19638    18801    18862 1
   19639    18801    18863 1
   19640    18802    18803 1
   19641    18802    18864 1
   19642    18802    18865 1
   19643    18803    18804 1
   19644    18803    18866 1
   19645    18803    18867 1
   19646    18804    18805 1
   19647    18804    18868 1
   19648    18804    18869 1
   19649    18805    18806 1
   19650    18805    18870 1
   19651    18805    18871 1
   19652    18806    18807 1
   19653    18806    18872 1
   19654    18806    18873 1
   19655    18807    18874 1
   19656    18807    18875 1
   19657    18807    18876 1
   19658    18877    18878 1
   19659    18877    18897 1
   19660    18877    18913 1
   19661    18877    18881 1
   19662    18878    18879 1
   19663    18878    18896 1
   19664    18879    18880 1
   19665    18879    18894 1
   19666    18880    18881 1
   19667    18880    18884 1
   19668    18881    18882 1
   19669    18882    18883 1
   19670    18882    18929 1
   19671    18883    18884 1
   19672    18883    18885 1
   19673    18885    18886 1
   19674    18885    18890 1
   19675    18886    18887 1
   19676    18886    18930 1
   19677    18887    18888 1
   19678    18888    18889 1
   19679    18889    18890 1
   19680    18889    18893 1
   19681    18890    18891 1
   19682    18891    18892 1
   19683    18892    18893 1
   19684    18894    18895 1
   19685    18895    18896 1
   19686    18895    19009 1
   19687    18896    18931 1
   19688    18897    18898 1
   19689    18897    18932 1
   19690    18897    18933 1
   19691    18898    18899 1
   19692    18898    18905 1
   19693    18898    18934 1
   19694    18899    18900 1
   19695    18899    18935 1
   19696    18899    18936 1
   19697    18900    18901 1
   19698    18900    18937 1
   19699    18900    18938 1
   19700    18901    18902 1
   19701    18901    18939 1
   19702    18901    18940 1
   19703    18902    18903 1
   19704    18902    18941 1
   19705    18902    18942 1
   19706    18903    18904 1
   19707    18903    18943 1
   19708    18903    18944 1
   19709    18904    18945 1
   19710    18904    18946 1
   19711    18904    18947 1
   19712    18905    18906 1
   19713    18905    18948 1
   19714    18905    18949 1
   19715    18906    18907 1
   19716    18906    18950 1
   19717    18906    18951 1
   19718    18907    18908 1
   19719    18907    18952 1
   19720    18907    18953 1
   19721    18908    18909 1
   19722    18908    18954 1
   19723    18908    18955 1
   19724    18909    18910 1
   19725    18909    18956 1
   19726    18909    18957 1
   19727    18910    18911 1
   19728    18910    18958 1
   19729    18910    18959 1
   19730    18911    18912 1
   19731    18911    18960 1
   19732    18911    18961 1
   19733    18912    18962 1
   19734    18912    18963 1
   19735    18912    18964 1
   19736    18913    18914 1
   19737    18913    18965 1
   19738    18913    18966 1
   19739    18914    18915 1
   19740    18914    18921 1
   19741    18914    18967 1
   19742    18915    18916 1
   19743    18915    18968 1
   19744    18915    18969 1
   19745    18916    18917 1
   19746    18916    18970 1
   19747    18916    18971 1
   19748    18917    18918 1
   19749    18917    18972 1
   19750    18917    18973 1
   19751    18918    18919 1
   19752    18918    18974 1
   19753    18918    18975 1
   19754    18919    18920 1
   19755    18919    18976 1
   19756    18919    18977 1
   19757    18920    18978 1
   19758    18920    18979 1
   19759    18920    18980 1
   19760    18921    18922 1
   19761    18921    18981 1
   19762    18921    18982 1
   19763    18922    18923 1
   19764    18922    18983 1
   19765    18922    18984 1
   19766    18923    18924 1
   19767    18923    18985 1
   19768    18923    18986 1
   19769    18924    18925 1
   19770    18924    18987 1
   19771    18924    18988 1
   19772    18925    18926 1
   19773    18925    18989 1
   19774    18925    18990 1
   19775    18926    18927 1
   19776    18926    18991 1
   19777    18926    18992 1
   19778    18927    18928 1
   19779    18927    18993 1
   19780    18927    18994 1
   19781    18928    18995 1
   19782    18928    18996 1
   19783    18928    18997 1
   19784    18998    18999 1
   19785    18998    19018 1
   19786    18998    19034 1
   19787    18998    19002 1
   19788    18999    19000 1
   19789    18999    19017 1
   19790    19000    19001 1
   19791    19000    19015 1
   19792    19001    19002 1
   19793    19001    19005 1
   19794    19002    19003 1
   19795    19003    19004 1
   19796    19003    19050 1
   19797    19004    19005 1
   19798    19004    19006 1
   19799    19006    19007 1
   19800    19006    19011 1
   19801    19007    19008 1
   19802    19007    19051 1
   19803    19008    19009 1
   19804    19009    19010 1
   19805    19010    19011 1
   19806    19010    19014 1
   19807    19011    19012 1
   19808    19012    19013 1
   19809    19013    19014 1
   19810    19015    19016 1
   19811    19016    19017 1
   19812    19016    19130 1
   19813    19017    19052 1
   19814    19018    19019 1
   19815    19018    19053 1
   19816    19018    19054 1
   19817    19019    19020 1
   19818    19019    19026 1
   19819    19019    19055 1
   19820    19020    19021 1
   19821    19020    19056 1
   19822    19020    19057 1
   19823    19021    19022 1
   19824    19021    19058 1
   19825    19021    19059 1
   19826    19022    19023 1
   19827    19022    19060 1
   19828    19022    19061 1
   19829    19023    19024 1
   19830    19023    19062 1
   19831    19023    19063 1
   19832    19024    19025 1
   19833    19024    19064 1
   19834    19024    19065 1
   19835    19025    19066 1
   19836    19025    19067 1
   19837    19025    19068 1
   19838    19026    19027 1
   19839    19026    19069 1
   19840    19026    19070 1
   19841    19027    19028 1
   19842    19027    19071 1
   19843    19027    19072 1
   19844    19028    19029 1
   19845    19028    19073 1
   19846    19028    19074 1
   19847    19029    19030 1
   19848    19029    19075 1
   19849    19029    19076 1
   19850    19030    19031 1
   19851    19030    19077 1
   19852    19030    19078 1
   19853    19031    19032 1
   19854    19031    19079 1
   19855    19031    19080 1
   19856    19032    19033 1
   19857    19032    19081 1
   19858    19032    19082 1
   19859    19033    19083 1
   19860    19033    19084 1
   19861    19033    19085 1
   19862    19034    19035 1
   19863    19034    19086 1
   19864    19034    19087 1
   19865    19035    19036 1
   19866    19035    19042 1
   19867    19035    19088 1
   19868    19036    19037 1
   19869    19036    19089 1
   19870    19036    19090 1
   19871    19037    19038 1
   19872    19037    19091 1
   19873    19037    19092 1
   19874    19038    19039 1
   19875    19038    19093 1
   19876    19038    19094 1
   19877    19039    19040 1
   19878    19039    19095 1
   19879    19039    19096 1
   19880    19040    19041 1
   19881    19040    19097 1
   19882    19040    19098 1
   19883    19041    19099 1
   19884    19041    19100 1
   19885    19041    19101 1
   19886    19042    19043 1
   19887    19042    19102 1
   19888    19042    19103 1
   19889    19043    19044 1
   19890    19043    19104 1
   19891    19043    19105 1
   19892    19044    19045 1
   19893    19044    19106 1
   19894    19044    19107 1
   19895    19045    19046 1
   19896    19045    19108 1
   19897    19045    19109 1
   19898    19046    19047 1
   19899    19046    19110 1
   19900    19046    19111 1
   19901    19047    19048 1
   19902    19047    19112 1
   19903    19047    19113 1
   19904    19048    19049 1
   19905    19048    19114 1
   19906    19048    19115 1
   19907    19049    19116 1
   19908    19049    19117 1
   19909    19049    19118 1
   19910    19119    19120 1
   19911    19119    19139 1
   19912    19119    19155 1
   19913    19119    19123 1
   19914    19120    19121 1
   19915    19120    19138 1
   19916    19121    19122 1
   19917    19121    19136 1
   19918    19122    19123 1
   19919    19122    19126 1
   19920    19123    19124 1
   19921    19124    19125 1
   19922    19124    19171 1
   19923    19125    19126 1
   19924    19125    19127 1
   19925    19127    19128 1
   19926    19127    19132 1
   19927    19128    19129 1
   19928    19128    19172 1
   19929    19129    19130 1
   19930    19130    19131 1
   19931    19131    19132 1
   19932    19131    19135 1
   19933    19132    19133 1
   19934    19133    19134 1
   19935    19134    19135 1
   19936    19136    19137 1
   19937    19137    19138 1
   19938    19137    19251 1
   19939    19138    19173 1
   19940    19139    19140 1
   19941    19139    19174 1
   19942    19139    19175 1
   19943    19140    19141 1
   19944    19140    19147 1
   19945    19140    19176 1
   19946    19141    19142 1
   19947    19141    19177 1
   19948    19141    19178 1
   19949    19142    19143 1
   19950    19142    19179 1
   19951    19142    19180 1
   19952    19143    19144 1
   19953    19143    19181 1
   19954    19143    19182 1
   19955    19144    19145 1
   19956    19144    19183 1
   19957    19144    19184 1
   19958    19145    19146 1
   19959    19145    19185 1
   19960    19145    19186 1
   19961    19146    19187 1
   19962    19146    19188 1
   19963    19146    19189 1
   19964    19147    19148 1
   19965    19147    19190 1
   19966    19147    19191 1
   19967    19148    19149 1
   19968    19148    19192 1
   19969    19148    19193 1
   19970    19149    19150 1
   19971    19149    19194 1
   19972    19149    19195 1
   19973    19150    19151 1
   19974    19150    19196 1
   19975    19150    19197 1
   19976    19151    19152 1
   19977    19151    19198 1
   19978    19151    19199 1
   19979    19152    19153 1
   19980    19152    19200 1
   19981    19152    19201 1
   19982    19153    19154 1
   19983    19153    19202 1
   19984    19153    19203 1
   19985    19154    19204 1
   19986    19154    19205 1
   19987    19154    19206 1
   19988    19155    19156 1
   19989    19155    19207 1
   19990    19155    19208 1
   19991    19156    19157 1
   19992    19156    19163 1
   19993    19156    19209 1
   19994    19157    19158 1
   19995    19157    19210 1
   19996    19157    19211 1
   19997    19158    19159 1
   19998    19158    19212 1
   19999    19158    19213 1
   20000    19159    19160 1
   20001    19159    19214 1
   20002    19159    19215 1
   20003    19160    19161 1
   20004    19160    19216 1
   20005    19160    19217 1
   20006    19161    19162 1
   20007    19161    19218 1
   20008    19161    19219 1
   20009    19162    19220 1
   20010    19162    19221 1
   20011    19162    19222 1
   20012    19163    19164 1
   20013    19163    19223 1
   20014    19163    19224 1
   20015    19164    19165 1
   20016    19164    19225 1
   20017    19164    19226 1
   20018    19165    19166 1
   20019    19165    19227 1
   20020    19165    19228 1
   20021    19166    19167 1
   20022    19166    19229 1
   20023    19166    19230 1
   20024    19167    19168 1
   20025    19167    19231 1
   20026    19167    19232 1
   20027    19168    19169 1
   20028    19168    19233 1
   20029    19168    19234 1
   20030    19169    19170 1
   20031    19169    19235 1
   20032    19169    19236 1
   20033    19170    19237 1
   20034    19170    19238 1
   20035    19170    19239 1
   20036    19240    19241 1
   20037    19240    19260 1
   20038    19240    19276 1
   20039    19240    19244 1
   20040    19241    19242 1
   20041    19241    19259 1
   20042    19242    19243 1
   20043    19242    19257 1
   20044    19243    19244 1
   20045    19243    19247 1
   20046    19244    19245 1
   20047    19245    19246 1
   20048    19245    19292 1
   20049    19246    19247 1
   20050    19246    19248 1
   20051    19248    19249 1
   20052    19248    19253 1
   20053    19249    19250 1
   20054    19249    19293 1
   20055    19250    19251 1
   20056    19251    19252 1
   20057    19252    19253 1
   20058    19252    19256 1
   20059    19253    19254 1
   20060    19254    19255 1
   20061    19255    19256 1
   20062    19257    19258 1
   20063    19258    19259 1
   20064    19258    19372 1
   20065    19259    19294 1
   20066    19260    19261 1
   20067    19260    19295 1
   20068    19260    19296 1
   20069    19261    19262 1
   20070    19261    19268 1
   20071    19261    19297 1
   20072    19262    19263 1
   20073    19262    19298 1
   20074    19262    19299 1
   20075    19263    19264 1
   20076    19263    19300 1
   20077    19263    19301 1
   20078    19264    19265 1
   20079    19264    19302 1
   20080    19264    19303 1
   20081    19265    19266 1
   20082    19265    19304 1
   20083    19265    19305 1
   20084    19266    19267 1
   20085    19266    19306 1
   20086    19266    19307 1
   20087    19267    19308 1
   20088    19267    19309 1
   20089    19267    19310 1
   20090    19268    19269 1
   20091    19268    19311 1
   20092    19268    19312 1
   20093    19269    19270 1
   20094    19269    19313 1
   20095    19269    19314 1
   20096    19270    19271 1
   20097    19270    19315 1
   20098    19270    19316 1
   20099    19271    19272 1
   20100    19271    19317 1
   20101    19271    19318 1
   20102    19272    19273 1
   20103    19272    19319 1
   20104    19272    19320 1
   20105    19273    19274 1
   20106    19273    19321 1
   20107    19273    19322 1
   20108    19274    19275 1
   20109    19274    19323 1
   20110    19274    19324 1
   20111    19275    19325 1
   20112    19275    19326 1
   20113    19275    19327 1
   20114    19276    19277 1
   20115    19276    19328 1
   20116    19276    19329 1
   20117    19277    19278 1
   20118    19277    19284 1
   20119    19277    19330 1
   20120    19278    19279 1
   20121    19278    19331 1
   20122    19278    19332 1
   20123    19279    19280 1
   20124    19279    19333 1
   20125    19279    19334 1
   20126    19280    19281 1
   20127    19280    19335 1
   20128    19280    19336 1
   20129    19281    19282 1
   20130    19281    19337 1
   20131    19281    19338 1
   20132    19282    19283 1
   20133    19282    19339 1
   20134    19282    19340 1
   20135    19283    19341 1
   20136    19283    19342 1
   20137    19283    19343 1
   20138    19284    19285 1
   20139    19284    19344 1
   20140    19284    19345 1
   20141    19285    19286 1
   20142    19285    19346 1
   20143    19285    19347 1
   20144    19286    19287 1
   20145    19286    19348 1
   20146    19286    19349 1
   20147    19287    19288 1
   20148    19287    19350 1
   20149    19287    19351 1
   20150    19288    19289 1
   20151    19288    19352 1
   20152    19288    19353 1
   20153    19289    19290 1
   20154    19289    19354 1
   20155    19289    19355 1
   20156    19290    19291 1
   20157    19290    19356 1
   20158    19290    19357 1
   20159    19291    19358 1
   20160    19291    19359 1
   20161    19291    19360 1
   20162    19361    19362 1
   20163    19361    19381 1
   20164    19361    19397 1
   20165    19361    19365 1
   20166    19362    19363 1
   20167    19362    19380 1
   20168    19363    19364 1
   20169    19363    19378 1
   20170    19364    19365 1
   20171    19364    19368 1
   20172    19365    19366 1
   20173    19366    19367 1
   20174    19366    19413 1
   20175    19367    19368 1
   20176    19367    19369 1
   20177    19369    19370 1
   20178    19369    19374 1
   20179    19370    19371 1
   20180    19370    19414 1
   20181    19371    19372 1
   20182    19372    19373 1
   20183    19373    19374 1
   20184    19373    19377 1
   20185    19374    19375 1
   20186    19375    19376 1
   20187    19376    19377 1
   20188    19378    19379 1
   20189    19379    19380 1
   20190    19379    19493 1
   20191    19380    19415 1
   20192    19381    19382 1
   20193    19381    19416 1
   20194    19381    19417 1
   20195    19382    19383 1
   20196    19382    19389 1
   20197    19382    19418 1
   20198    19383    19384 1
   20199    19383    19419 1
   20200    19383    19420 1
   20201    19384    19385 1
   20202    19384    19421 1
   20203    19384    19422 1
   20204    19385    19386 1
   20205    19385    19423 1
   20206    19385    19424 1
   20207    19386    19387 1
   20208    19386    19425 1
   20209    19386    19426 1
   20210    19387    19388 1
   20211    19387    19427 1
   20212    19387    19428 1
   20213    19388    19429 1
   20214    19388    19430 1
   20215    19388    19431 1
   20216    19389    19390 1
   20217    19389    19432 1
   20218    19389    19433 1
   20219    19390    19391 1
   20220    19390    19434 1
   20221    19390    19435 1
   20222    19391    19392 1
   20223    19391    19436 1
   20224    19391    19437 1
   20225    19392    19393 1
   20226    19392    19438 1
   20227    19392    19439 1
   20228    19393    19394 1
   20229    19393    19440 1
   20230    19393    19441 1
   20231    19394    19395 1
   20232    19394    19442 1
   20233    19394    19443 1
   20234    19395    19396 1
   20235    19395    19444 1
   20236    19395    19445 1
   20237    19396    19446 1
   20238    19396    19447 1
   20239    19396    19448 1
   20240    19397    19398 1
   20241    19397    19449 1
   20242    19397    19450 1
   20243    19398    19399 1
   20244    19398    19405 1
   20245    19398    19451 1
   20246    19399    19400 1
   20247    19399    19452 1
   20248    19399    19453 1
   20249    19400    19401 1
   20250    19400    19454 1
   20251    19400    19455 1
   20252    19401    19402 1
   20253    19401    19456 1
   20254    19401    19457 1
   20255    19402    19403 1
   20256    19402    19458 1
   20257    19402    19459 1
   20258    19403    19404 1
   20259    19403    19460 1
   20260    19403    19461 1
   20261    19404    19462 1
   20262    19404    19463 1
   20263    19404    19464 1
   20264    19405    19406 1
   20265    19405    19465 1
   20266    19405    19466 1
   20267    19406    19407 1
   20268    19406    19467 1
   20269    19406    19468 1
   20270    19407    19408 1
   20271    19407    19469 1
   20272    19407    19470 1
   20273    19408    19409 1
   20274    19408    19471 1
   20275    19408    19472 1
   20276    19409    19410 1
   20277    19409    19473 1
   20278    19409    19474 1
   20279    19410    19411 1
   20280    19410    19475 1
   20281    19410    19476 1
   20282    19411    19412 1
   20283    19411    19477 1
   20284    19411    19478 1
   20285    19412    19479 1
   20286    19412    19480 1
   20287    19412    19481 1
   20288    19482    19483 1
   20289    19482    19502 1
   20290    19482    19518 1
   20291    19482    19486 1
   20292    19483    19484 1
   20293    19483    19501 1
   20294    19484    19485 1
   20295    19484    19499 1
   20296    19485    19486 1
   20297    19485    19489 1
   20298    19486    19487 1
   20299    19487    19488 1
   20300    19487    19534 1
   20301    19488    19489 1
   20302    19488    19490 1
   20303    19490    19491 1
   20304    19490    19495 1
   20305    19491    19492 1
   20306    19491    19535 1
   20307    19492    19493 1
   20308    19493    19494 1
   20309    19494    19495 1
   20310    19494    19498 1
   20311    19495    19496 1
   20312    19496    19497 1
   20313    19497    19498 1
   20314    19499    19500 1
   20315    19500    19501 1
   20316    19500    19614 1
   20317    19501    19536 1
   20318    19502    19503 1
   20319    19502    19537 1
   20320    19502    19538 1
   20321    19503    19504 1
   20322    19503    19510 1
   20323    19503    19539 1
   20324    19504    19505 1
   20325    19504    19540 1
   20326    19504    19541 1
   20327    19505    19506 1
   20328    19505    19542 1
   20329    19505    19543 1
   20330    19506    19507 1
   20331    19506    19544 1
   20332    19506    19545 1
   20333    19507    19508 1
   20334    19507    19546 1
   20335    19507    19547 1
   20336    19508    19509 1
   20337    19508    19548 1
   20338    19508    19549 1
   20339    19509    19550 1
   20340    19509    19551 1
   20341    19509    19552 1
   20342    19510    19511 1
   20343    19510    19553 1
   20344    19510    19554 1
   20345    19511    19512 1
   20346    19511    19555 1
   20347    19511    19556 1
   20348    19512    19513 1
   20349    19512    19557 1
   20350    19512    19558 1
   20351    19513    19514 1
   20352    19513    19559 1
   20353    19513    19560 1
   20354    19514    19515 1
   20355    19514    19561 1
   20356    19514    19562 1
   20357    19515    19516 1
   20358    19515    19563 1
   20359    19515    19564 1
   20360    19516    19517 1
   20361    19516    19565 1
   20362    19516    19566 1
   20363    19517    19567 1
   20364    19517    19568 1
   20365    19517    19569 1
   20366    19518    19519 1
   20367    19518    19570 1
   20368    19518    19571 1
   20369    19519    19520 1
   20370    19519    19526 1
   20371    19519    19572 1
   20372    19520    19521 1
   20373    19520    19573 1
   20374    19520    19574 1
   20375    19521    19522 1
   20376    19521    19575 1
   20377    19521    19576 1
   20378    19522    19523 1
   20379    19522    19577 1
   20380    19522    19578 1
   20381    19523    19524 1
   20382    19523    19579 1
   20383    19523    19580 1
   20384    19524    19525 1
   20385    19524    19581 1
   20386    19524    19582 1
   20387    19525    19583 1
   20388    19525    19584 1
   20389    19525    19585 1
   20390    19526    19527 1
   20391    19526    19586 1
   20392    19526    19587 1
   20393    19527    19528 1
   20394    19527    19588 1
   20395    19527    19589 1
   20396    19528    19529 1
   20397    19528    19590 1
   20398    19528    19591 1
   20399    19529    19530 1
   20400    19529    19592 1
   20401    19529    19593 1
   20402    19530    19531 1
   20403    19530    19594 1
   20404    19530    19595 1
   20405    19531    19532 1
   20406    19531    19596 1
   20407    19531    19597 1
   20408    19532    19533 1
   20409    19532    19598 1
   20410    19532    19599 1
   20411    19533    19600 1
   20412    19533    19601 1
   20413    19533    19602 1
   20414    19603    19604 1
   20415    19603    19623 1
   20416    19603    19639 1
   20417    19603    19607 1
   20418    19604    19605 1
   20419    19604    19622 1
   20420    19605    19606 1
   20421    19605    19620 1
   20422    19606    19607 1
   20423    19606    19610 1
   20424    19607    19608 1
   20425    19608    19609 1
   20426    19608    19655 1
   20427    19609    19610 1
   20428    19609    19611 1
   20429    19611    19612 1
   20430    19611    19616 1
   20431    19612    19613 1
   20432    19612    19656 1
   20433    19613    19614 1
   20434    19614    19615 1
   20435    19615    19616 1
   20436    19615    19619 1
   20437    19616    19617 1
   20438    19617    19618 1
   20439    19618    19619 1
   20440    19620    19621 1
   20441    19621    19622 1
   20442    19621    19735 1
   20443    19622    19657 1
   20444    19623    19624 1
   20445    19623    19658 1
   20446    19623    19659 1
   20447    19624    19625 1
   20448    19624    19631 1
   20449    19624    19660 1
   20450    19625    19626 1
   20451    19625    19661 1
   20452    19625    19662 1
   20453    19626    19627 1
   20454    19626    19663 1
   20455    19626    19664 1
   20456    19627    19628 1
   20457    19627    19665 1
   20458    19627    19666 1
   20459    19628    19629 1
   20460    19628    19667 1
   20461    19628    19668 1
   20462    19629    19630 1
   20463    19629    19669 1
   20464    19629    19670 1
   20465    19630    19671 1
   20466    19630    19672 1
   20467    19630    19673 1
   20468    19631    19632 1
   20469    19631    19674 1
   20470    19631    19675 1
   20471    19632    19633 1
   20472    19632    19676 1
   20473    19632    19677 1
   20474    19633    19634 1
   20475    19633    19678 1
   20476    19633    19679 1
   20477    19634    19635 1
   20478    19634    19680 1
   20479    19634    19681 1
   20480    19635    19636 1
   20481    19635    19682 1
   20482    19635    19683 1
   20483    19636    19637 1
   20484    19636    19684 1
   20485    19636    19685 1
   20486    19637    19638 1
   20487    19637    19686 1
   20488    19637    19687 1
   20489    19638    19688 1
   20490    19638    19689 1
   20491    19638    19690 1
   20492    19639    19640 1
   20493    19639    19691 1
   20494    19639    19692 1
   20495    19640    19641 1
   20496    19640    19647 1
   20497    19640    19693 1
   20498    19641    19642 1
   20499    19641    19694 1
   20500    19641    19695 1
   20501    19642    19643 1
   20502    19642    19696 1
   20503    19642    19697 1
   20504    19643    19644 1
   20505    19643    19698 1
   20506    19643    19699 1
   20507    19644    19645 1
   20508    19644    19700 1
   20509    19644    19701 1
   20510    19645    19646 1
   20511    19645    19702 1
   20512    19645    19703 1
   20513    19646    19704 1
   20514    19646    19705 1
   20515    19646    19706 1
   20516    19647    19648 1
   20517    19647    19707 1
   20518    19647    19708 1
   20519    19648    19649 1
   20520    19648    19709 1
   20521    19648    19710 1
   20522    19649    19650 1
   20523    19649    19711 1
   20524    19649    19712 1
   20525    19650    19651 1
   20526    19650    19713 1
   20527    19650    19714 1
   20528    19651    19652 1
   20529    19651    19715 1
   20530    19651    19716 1
   20531    19652    19653 1
   20532    19652    19717 1
   20533    19652    19718 1
   20534    19653    19654 1
   20535    19653    19719 1
   20536    19653    19720 1
   20537    19654    19721 1
   20538    19654    19722 1
   20539    19654    19723 1
   20540    19724    19725 1
   20541    19724    19744 1
   20542    19724    19760 1
   20543    19724    19728 1
   20544    19725    19726 1
   20545    19725    19743 1
   20546    19726    19727 1
   20547    19726    19741 1
   20548    19727    19728 1
   20549    19727    19731 1
   20550    19728    19729 1
   20551    19729    19730 1
   20552    19729    19776 1
   20553    19730    19731 1
   20554    19730    19732 1
   20555    19732    19733 1
   20556    19732    19737 1
   20557    19733    19734 1
   20558    19733    19777 1
   20559    19734    19735 1
   20560    19735    19736 1
   20561    19736    19737 1
   20562    19736    19740 1
   20563    19737    19738 1
   20564    19738    19739 1
   20565    19739    19740 1
   20566    19741    19742 1
   20567    19742    19743 1
   20568    19742    19856 1
   20569    19743    19778 1
   20570    19744    19745 1
   20571    19744    19779 1
   20572    19744    19780 1
   20573    19745    19746 1
   20574    19745    19752 1
   20575    19745    19781 1
   20576    19746    19747 1
   20577    19746    19782 1
   20578    19746    19783 1
   20579    19747    19748 1
   20580    19747    19784 1
   20581    19747    19785 1
   20582    19748    19749 1
   20583    19748    19786 1
   20584    19748    19787 1
   20585    19749    19750 1
   20586    19749    19788 1
   20587    19749    19789 1
   20588    19750    19751 1
   20589    19750    19790 1
   20590    19750    19791 1
   20591    19751    19792 1
   20592    19751    19793 1
   20593    19751    19794 1
   20594    19752    19753 1
   20595    19752    19795 1
   20596    19752    19796 1
   20597    19753    19754 1
   20598    19753    19797 1
   20599    19753    19798 1
   20600    19754    19755 1
   20601    19754    19799 1
   20602    19754    19800 1
   20603    19755    19756 1
   20604    19755    19801 1
   20605    19755    19802 1
   20606    19756    19757 1
   20607    19756    19803 1
   20608    19756    19804 1
   20609    19757    19758 1
   20610    19757    19805 1
   20611    19757    19806 1
   20612    19758    19759 1
   20613    19758    19807 1
   20614    19758    19808 1
   20615    19759    19809 1
   20616    19759    19810 1
   20617    19759    19811 1
   20618    19760    19761 1
   20619    19760    19812 1
   20620    19760    19813 1
   20621    19761    19762 1
   20622    19761    19768 1
   20623    19761    19814 1
   20624    19762    19763 1
   20625    19762    19815 1
   20626    19762    19816 1
   20627    19763    19764 1
   20628    19763    19817 1
   20629    19763    19818 1
   20630    19764    19765 1
   20631    19764    19819 1
   20632    19764    19820 1
   20633    19765    19766 1
   20634    19765    19821 1
   20635    19765    19822 1
   20636    19766    19767 1
   20637    19766    19823 1
   20638    19766    19824 1
   20639    19767    19825 1
   20640    19767    19826 1
   20641    19767    19827 1
   20642    19768    19769 1
   20643    19768    19828 1
   20644    19768    19829 1
   20645    19769    19770 1
   20646    19769    19830 1
   20647    19769    19831 1
   20648    19770    19771 1
   20649    19770    19832 1
   20650    19770    19833 1
   20651    19771    19772 1
   20652    19771    19834 1
   20653    19771    19835 1
   20654    19772    19773 1
   20655    19772    19836 1
   20656    19772    19837 1
   20657    19773    19774 1
   20658    19773    19838 1
   20659    19773    19839 1
   20660    19774    19775 1
   20661    19774    19840 1
   20662    19774    19841 1
   20663    19775    19842 1
   20664    19775    19843 1
   20665    19775    19844 1
   20666    19845    19846 1
   20667    19845    19865 1
   20668    19845    19881 1
   20669    19845    19849 1
   20670    19846    19847 1
   20671    19846    19864 1
   20672    19847    19848 1
   20673    19847    19862 1
   20674    19848    19849 1
   20675    19848    19852 1
   20676    19849    19850 1
   20677    19850    19851 1
   20678    19850    19897 1
   20679    19851    19852 1
   20680    19851    19853 1
   20681    19853    19854 1
   20682    19853    19858 1
   20683    19854    19855 1
   20684    19854    19898 1
   20685    19855    19856 1
   20686    19856    19857 1
   20687    19857    19858 1
   20688    19857    19861 1
   20689    19858    19859 1
   20690    19859    19860 1
   20691    19860    19861 1
   20692    19862    19863 1
   20693    19863    19864 1
   20694    19863    19977 1
   20695    19864    19899 1
   20696    19865    19866 1
   20697    19865    19900 1
   20698    19865    19901 1
   20699    19866    19867 1
   20700    19866    19873 1
   20701    19866    19902 1
   20702    19867    19868 1
   20703    19867    19903 1
   20704    19867    19904 1
   20705    19868    19869 1
   20706    19868    19905 1
   20707    19868    19906 1
   20708    19869    19870 1
   20709    19869    19907 1
   20710    19869    19908 1
   20711    19870    19871 1
   20712    19870    19909 1
   20713    19870    19910 1
   20714    19871    19872 1
   20715    19871    19911 1
   20716    19871    19912 1
   20717    19872    19913 1
   20718    19872    19914 1
   20719    19872    19915 1
   20720    19873    19874 1
   20721    19873    19916 1
   20722    19873    19917 1
   20723    19874    19875 1
   20724    19874    19918 1
   20725    19874    19919 1
   20726    19875    19876 1
   20727    19875    19920 1
   20728    19875    19921 1
   20729    19876    19877 1
   20730    19876    19922 1
   20731    19876    19923 1
   20732    19877    19878 1
   20733    19877    19924 1
   20734    19877    19925 1
   20735    19878    19879 1
   20736    19878    19926 1
   20737    19878    19927 1
   20738    19879    19880 1
   20739    19879    19928 1
   20740    19879    19929 1
   20741    19880    19930 1
   20742    19880    19931 1
   20743    19880    19932 1
   20744    19881    19882 1
   20745    19881    19933 1
   20746    19881    19934 1
   20747    19882    19883 1
   20748    19882    19889 1
   20749    19882    19935 1
   20750    19883    19884 1
   20751    19883    19936 1
   20752    19883    19937 1
   20753    19884    19885 1
   20754    19884    19938 1
   20755    19884    19939 1
   20756    19885    19886 1
   20757    19885    19940 1
   20758    19885    19941 1
   20759    19886    19887 1
   20760    19886    19942 1
   20761    19886    19943 1
   20762    19887    19888 1
   20763    19887    19944 1
   20764    19887    19945 1
   20765    19888    19946 1
   20766    19888    19947 1
   20767    19888    19948 1
   20768    19889    19890 1
   20769    19889    19949 1
   20770    19889    19950 1
   20771    19890    19891 1
   20772    19890    19951 1
   20773    19890    19952 1
   20774    19891    19892 1
   20775    19891    19953 1
   20776    19891    19954 1
   20777    19892    19893 1
   20778    19892    19955 1
   20779    19892    19956 1
   20780    19893    19894 1
   20781    19893    19957 1
   20782    19893    19958 1
   20783    19894    19895 1
   20784    19894    19959 1
   20785    19894    19960 1
   20786    19895    19896 1
   20787    19895    19961 1
   20788    19895    19962 1
   20789    19896    19963 1
   20790    19896    19964 1
   20791    19896    19965 1
   20792    19966    19967 1
   20793    19966    19986 1
   20794    19966    20002 1
   20795    19966    19970 1
   20796    19967    19968 1
   20797    19967    19985 1
   20798    19968    19969 1
   20799    19968    19983 1
   20800    19969    19970 1
   20801    19969    19973 1
   20802    19970    19971 1
   20803    19971    19972 1
   20804    19971    20018 1
   20805    19972    19973 1
   20806    19972    19974 1
   20807    19974    19975 1
   20808    19974    19979 1
   20809    19975    19976 1
   20810    19975    20019 1
   20811    19976    19977 1
   20812    19977    19978 1
   20813    19978    19979 1
   20814    19978    19982 1
   20815    19979    19980 1
   20816    19980    19981 1
   20817    19981    19982 1
   20818    19983    19984 1
   20819    19984    19985 1
   20820    19984    20098 1
   20821    19985    20020 1
   20822    19986    19987 1
   20823    19986    20021 1
   20824    19986    20022 1
   20825    19987    19988 1
   20826    19987    19994 1
   20827    19987    20023 1
   20828    19988    19989 1
   20829    19988    20024 1
   20830    19988    20025 1
   20831    19989    19990 1
   20832    19989    20026 1
   20833    19989    20027 1
   20834    19990    19991 1
   20835    19990    20028 1
   20836    19990    20029 1
   20837    19991    19992 1
   20838    19991    20030 1
   20839    19991    20031 1
   20840    19992    19993 1
   20841    19992    20032 1
   20842    19992    20033 1
   20843    19993    20034 1
   20844    19993    20035 1
   20845    19993    20036 1
   20846    19994    19995 1
   20847    19994    20037 1
   20848    19994    20038 1
   20849    19995    19996 1
   20850    19995    20039 1
   20851    19995    20040 1
   20852    19996    19997 1
   20853    19996    20041 1
   20854    19996    20042 1
   20855    19997    19998 1
   20856    19997    20043 1
   20857    19997    20044 1
   20858    19998    19999 1
   20859    19998    20045 1
   20860    19998    20046 1
   20861    19999    20000 1
   20862    19999    20047 1
   20863    19999    20048 1
   20864    20000    20001 1
   20865    20000    20049 1
   20866    20000    20050 1
   20867    20001    20051 1
   20868    20001    20052 1
   20869    20001    20053 1
   20870    20002    20003 1
   20871    20002    20054 1
   20872    20002    20055 1
   20873    20003    20004 1
   20874    20003    20010 1
   20875    20003    20056 1
   20876    20004    20005 1
   20877    20004    20057 1
   20878    20004    20058 1
   20879    20005    20006 1
   20880    20005    20059 1
   20881    20005    20060 1
   20882    20006    20007 1
   20883    20006    20061 1
   20884    20006    20062 1
   20885    20007    20008 1
   20886    20007    20063 1
   20887    20007    20064 1
   20888    20008    20009 1
   20889    20008    20065 1
   20890    20008    20066 1
   20891    20009    20067 1
   20892    20009    20068 1
   20893    20009    20069 1
   20894    20010    20011 1
   20895    20010    20070 1
   20896    20010    20071 1
   20897    20011    20012 1
   20898    20011    20072 1
   20899    20011    20073 1
   20900    20012    20013 1
   20901    20012    20074 1
   20902    20012    20075 1
   20903    20013    20014 1
   20904    20013    20076 1
   20905    20013    20077 1
   20906    20014    20015 1
   20907    20014    20078 1
   20908    20014    20079 1
   20909    20015    20016 1
   20910    20015    20080 1
   20911    20015    20081 1
   20912    20016    20017 1
   20913    20016    20082 1
   20914    20016    20083 1
   20915    20017    20084 1
   20916    20017    20085 1
   20917    20017    20086 1
   20918    20087    20088 1
   20919    20087    20107 1
   20920    20087    20123 1
   20921    20087    20091 1
   20922    20088    20089 1
   20923    20088    20106 1
   20924    20089    20090 1
   20925    20089    20104 1
   20926    20090    20091 1
   20927    20090    20094 1
   20928    20091    20092 1
   20929    20092    20093 1
   20930    20092    20139 1
   20931    20093    20094 1
   20932    20093    20095 1
   20933    20095    20096 1
   20934    20095    20100 1
   20935    20096    20097 1
   20936    20096    20140 1
   20937    20097    20098 1
   20938    20098    20099 1
   20939    20099    20100 1
   20940    20099    20103 1
   20941    20100    20101 1
   20942    20101    20102 1
   20943    20102    20103 1
   20944    20104    20105 1
   20945    20105    20106 1
   20946    20105    20219 1
   20947    20106    20141 1
   20948    20107    20108 1
   20949    20107    20142 1
   20950    20107    20143 1
   20951    20108    20109 1
   20952    20108    20115 1
   20953    20108    20144 1
   20954    20109    20110 1
   20955    20109    20145 1
   20956    20109    20146 1
   20957    20110    20111 1
   20958    20110    20147 1
   20959    20110    20148 1
   20960    20111    20112 1
   20961    20111    20149 1
   20962    20111    20150 1
   20963    20112    20113 1
   20964    20112    20151 1
   20965    20112    20152 1
   20966    20113    20114 1
   20967    20113    20153 1
   20968    20113    20154 1
   20969    20114    20155 1
   20970    20114    20156 1
   20971    20114    20157 1
   20972    20115    20116 1
   20973    20115    20158 1
   20974    20115    20159 1
   20975    20116    20117 1
   20976    20116    20160 1
   20977    20116    20161 1
   20978    20117    20118 1
   20979    20117    20162 1
   20980    20117    20163 1
   20981    20118    20119 1
   20982    20118    20164 1
   20983    20118    20165 1
   20984    20119    20120 1
   20985    20119    20166 1
   20986    20119    20167 1
   20987    20120    20121 1
   20988    20120    20168 1
   20989    20120    20169 1
   20990    20121    20122 1
   20991    20121    20170 1
   20992    20121    20171 1
   20993    20122    20172 1
   20994    20122    20173 1
   20995    20122    20174 1
   20996    20123    20124 1
   20997    20123    20175 1
   20998    20123    20176 1
   20999    20124    20125 1
   21000    20124    20131 1
   21001    20124    20177 1
   21002    20125    20126 1
   21003    20125    20178 1
   21004    20125    20179 1
   21005    20126    20127 1
   21006    20126    20180 1
   21007    20126    20181 1
   21008    20127    20128 1
   21009    20127    20182 1
   21010    20127    20183 1
   21011    20128    20129 1
   21012    20128    20184 1
   21013    20128    20185 1
   21014    20129    20130 1
   21015    20129    20186 1
   21016    20129    20187 1
   21017    20130    20188 1
   21018    20130    20189 1
   21019    20130    20190 1
   21020    20131    20132 1
   21021    20131    20191 1
   21022    20131    20192 1
   21023    20132    20133 1
   21024    20132    20193 1
   21025    20132    20194 1
   21026    20133    20134 1
   21027    20133    20195 1
   21028    20133    20196 1
   21029    20134    20135 1
   21030    20134    20197 1
   21031    20134    20198 1
   21032    20135    20136 1
   21033    20135    20199 1
   21034    20135    20200 1
   21035    20136    20137 1
   21036    20136    20201 1
   21037    20136    20202 1
   21038    20137    20138 1
   21039    20137    20203 1
   21040    20137    20204 1
   21041    20138    20205 1
   21042    20138    20206 1
   21043    20138    20207 1
   21044    20208    20209 1
   21045    20208    20228 1
   21046    20208    20244 1
   21047    20208    20212 1
   21048    20209    20210 1
   21049    20209    20227 1
   21050    20210    20211 1
   21051    20210    20225 1
   21052    20211    20212 1
   21053    20211    20215 1
   21054    20212    20213 1
   21055    20213    20214 1
   21056    20213    20260 1
   21057    20214    20215 1
   21058    20214    20216 1
   21059    20216    20217 1
   21060    20216    20221 1
   21061    20217    20218 1
   21062    20217    20261 1
   21063    20218    20219 1
   21064    20219    20220 1
   21065    20220    20221 1
   21066    20220    20224 1
   21067    20221    20222 1
   21068    20222    20223 1
   21069    20223    20224 1
   21070    20225    20226 1
   21071    20226    20227 1
   21072    20226    20340 1
   21073    20227    20262 1
   21074    20228    20229 1
   21075    20228    20263 1
   21076    20228    20264 1
   21077    20229    20230 1
   21078    20229    20236 1
   21079    20229    20265 1
   21080    20230    20231 1
   21081    20230    20266 1
   21082    20230    20267 1
   21083    20231    20232 1
   21084    20231    20268 1
   21085    20231    20269 1
   21086    20232    20233 1
   21087    20232    20270 1
   21088    20232    20271 1
   21089    20233    20234 1
   21090    20233    20272 1
   21091    20233    20273 1
   21092    20234    20235 1
   21093    20234    20274 1
   21094    20234    20275 1
   21095    20235    20276 1
   21096    20235    20277 1
   21097    20235    20278 1
   21098    20236    20237 1
   21099    20236    20279 1
   21100    20236    20280 1
   21101    20237    20238 1
   21102    20237    20281 1
   21103    20237    20282 1
   21104    20238    20239 1
   21105    20238    20283 1
   21106    20238    20284 1
   21107    20239    20240 1
   21108    20239    20285 1
   21109    20239    20286 1
   21110    20240    20241 1
   21111    20240    20287 1
   21112    20240    20288 1
   21113    20241    20242 1
   21114    20241    20289 1
   21115    20241    20290 1
   21116    20242    20243 1
   21117    20242    20291 1
   21118    20242    20292 1
   21119    20243    20293 1
   21120    20243    20294 1
   21121    20243    20295 1
   21122    20244    20245 1
   21123    20244    20296 1
   21124    20244    20297 1
   21125    20245    20246 1
   21126    20245    20252 1
   21127    20245    20298 1
   21128    20246    20247 1
   21129    20246    20299 1
   21130    20246    20300 1
   21131    20247    20248 1
   21132    20247    20301 1
   21133    20247    20302 1
   21134    20248    20249 1
   21135    20248    20303 1
   21136    20248    20304 1
   21137    20249    20250 1
   21138    20249    20305 1
   21139    20249    20306 1
   21140    20250    20251 1
   21141    20250    20307 1
   21142    20250    20308 1
   21143    20251    20309 1
   21144    20251    20310 1
   21145    20251    20311 1
   21146    20252    20253 1
   21147    20252    20312 1
   21148    20252    20313 1
   21149    20253    20254 1
   21150    20253    20314 1
   21151    20253    20315 1
   21152    20254    20255 1
   21153    20254    20316 1
   21154    20254    20317 1
   21155    20255    20256 1
   21156    20255    20318 1
   21157    20255    20319 1
   21158    20256    20257 1
   21159    20256    20320 1
   21160    20256    20321 1
   21161    20257    20258 1
   21162    20257    20322 1
   21163    20257    20323 1
   21164    20258    20259 1
   21165    20258    20324 1
   21166    20258    20325 1
   21167    20259    20326 1
   21168    20259    20327 1
   21169    20259    20328 1
   21170    20329    20330 1
   21171    20329    20349 1
   21172    20329    20365 1
   21173    20329    20333 1
   21174    20330    20331 1
   21175    20330    20348 1
   21176    20331    20332 1
   21177    20331    20346 1
   21178    20332    20333 1
   21179    20332    20336 1
   21180    20333    20334 1
   21181    20334    20335 1
   21182    20334    20381 1
   21183    20335    20336 1
   21184    20335    20337 1
   21185    20337    20338 1
   21186    20337    20342 1
   21187    20338    20339 1
   21188    20338    20382 1
   21189    20339    20340 1
   21190    20340    20341 1
   21191    20341    20342 1
   21192    20341    20345 1
   21193    20342    20343 1
   21194    20343    20344 1
   21195    20344    20345 1
   21196    20346    20347 1
   21197    20347    20348 1
   21198    20347    20461 1
   21199    20348    20383 1
   21200    20349    20350 1
   21201    20349    20384 1
   21202    20349    20385 1
   21203    20350    20351 1
   21204    20350    20357 1
   21205    20350    20386 1
   21206    20351    20352 1
   21207    20351    20387 1
   21208    20351    20388 1
   21209    20352    20353 1
   21210    20352    20389 1
   21211    20352    20390 1
   21212    20353    20354 1
   21213    20353    20391 1
   21214    20353    20392 1
   21215    20354    20355 1
   21216    20354    20393 1
   21217    20354    20394 1
   21218    20355    20356 1
   21219    20355    20395 1
   21220    20355    20396 1
   21221    20356    20397 1
   21222    20356    20398 1
   21223    20356    20399 1
   21224    20357    20358 1
   21225    20357    20400 1
   21226    20357    20401 1
   21227    20358    20359 1
   21228    20358    20402 1
   21229    20358    20403 1
   21230    20359    20360 1
   21231    20359    20404 1
   21232    20359    20405 1
   21233    20360    20361 1
   21234    20360    20406 1
   21235    20360    20407 1
   21236    20361    20362 1
   21237    20361    20408 1
   21238    20361    20409 1
   21239    20362    20363 1
   21240    20362    20410 1
   21241    20362    20411 1
   21242    20363    20364 1
   21243    20363    20412 1
   21244    20363    20413 1
   21245    20364    20414 1
   21246    20364    20415 1
   21247    20364    20416 1
   21248    20365    20366 1
   21249    20365    20417 1
   21250    20365    20418 1
   21251    20366    20367 1
   21252    20366    20373 1
   21253    20366    20419 1
   21254    20367    20368 1
   21255    20367    20420 1
   21256    20367    20421 1
   21257    20368    20369 1
   21258    20368    20422 1
   21259    20368    20423 1
   21260    20369    20370 1
   21261    20369    20424 1
   21262    20369    20425 1
   21263    20370    20371 1
   21264    20370    20426 1
   21265    20370    20427 1
   21266    20371    20372 1
   21267    20371    20428 1
   21268    20371    20429 1
   21269    20372    20430 1
   21270    20372    20431 1
   21271    20372    20432 1
   21272    20373    20374 1
   21273    20373    20433 1
   21274    20373    20434 1
   21275    20374    20375 1
   21276    20374    20435 1
   21277    20374    20436 1
   21278    20375    20376 1
   21279    20375    20437 1
   21280    20375    20438 1
   21281    20376    20377 1
   21282    20376    20439 1
   21283    20376    20440 1
   21284    20377    20378 1
   21285    20377    20441 1
   21286    20377    20442 1
   21287    20378    20379 1
   21288    20378    20443 1
   21289    20378    20444 1
   21290    20379    20380 1
   21291    20379    20445 1
   21292    20379    20446 1
   21293    20380    20447 1
   21294    20380    20448 1
   21295    20380    20449 1
   21296    20450    20451 1
   21297    20450    20470 1
   21298    20450    20486 1
   21299    20450    20454 1
   21300    20451    20452 1
   21301    20451    20469 1
   21302    20452    20453 1
   21303    20452    20467 1
   21304    20453    20454 1
   21305    20453    20457 1
   21306    20454    20455 1
   21307    20455    20456 1
   21308    20455    20502 1
   21309    20456    20457 1
   21310    20456    20458 1
   21311    20458    20459 1
   21312    20458    20463 1
   21313    20459    20460 1
   21314    20459    20503 1
   21315    20460    20461 1
   21316    20461    20462 1
   21317    20462    20463 1
   21318    20462    20466 1
   21319    20463    20464 1
   21320    20464    20465 1
   21321    20465    20466 1
   21322    20467    20468 1
   21323    20468    20469 1
   21324    20468    20582 1
   21325    20469    20504 1
   21326    20470    20471 1
   21327    20470    20505 1
   21328    20470    20506 1
   21329    20471    20472 1
   21330    20471    20478 1
   21331    20471    20507 1
   21332    20472    20473 1
   21333    20472    20508 1
   21334    20472    20509 1
   21335    20473    20474 1
   21336    20473    20510 1
   21337    20473    20511 1
   21338    20474    20475 1
   21339    20474    20512 1
   21340    20474    20513 1
   21341    20475    20476 1
   21342    20475    20514 1
   21343    20475    20515 1
   21344    20476    20477 1
   21345    20476    20516 1
   21346    20476    20517 1
   21347    20477    20518 1
   21348    20477    20519 1
   21349    20477    20520 1
   21350    20478    20479 1
   21351    20478    20521 1
   21352    20478    20522 1
   21353    20479    20480 1
   21354    20479    20523 1
   21355    20479    20524 1
   21356    20480    20481 1
   21357    20480    20525 1
   21358    20480    20526 1
   21359    20481    20482 1
   21360    20481    20527 1
   21361    20481    20528 1
   21362    20482    20483 1
   21363    20482    20529 1
   21364    20482    20530 1
   21365    20483    20484 1
   21366    20483    20531 1
   21367    20483    20532 1
   21368    20484    20485 1
   21369    20484    20533 1
   21370    20484    20534 1
   21371    20485    20535 1
   21372    20485    20536 1
   21373    20485    20537 1
   21374    20486    20487 1
   21375    20486    20538 1
   21376    20486    20539 1
   21377    20487    20488 1
   21378    20487    20494 1
   21379    20487    20540 1
   21380    20488    20489 1
   21381    20488    20541 1
   21382    20488    20542 1
   21383    20489    20490 1
   21384    20489    20543 1
   21385    20489    20544 1
   21386    20490    20491 1
   21387    20490    20545 1
   21388    20490    20546 1
   21389    20491    20492 1
   21390    20491    20547 1
   21391    20491    20548 1
   21392    20492    20493 1
   21393    20492    20549 1
   21394    20492    20550 1
   21395    20493    20551 1
   21396    20493    20552 1
   21397    20493    20553 1
   21398    20494    20495 1
   21399    20494    20554 1
   21400    20494    20555 1
   21401    20495    20496 1
   21402    20495    20556 1
   21403    20495    20557 1
   21404    20496    20497 1
   21405    20496    20558 1
   21406    20496    20559 1
   21407    20497    20498 1
   21408    20497    20560 1
   21409    20497    20561 1
   21410    20498    20499 1
   21411    20498    20562 1
   21412    20498    20563 1
   21413    20499    20500 1
   21414    20499    20564 1
   21415    20499    20565 1
   21416    20500    20501 1
   21417    20500    20566 1
   21418    20500    20567 1
   21419    20501    20568 1
   21420    20501    20569 1
   21421    20501    20570 1
   21422    20571    20572 1
   21423    20571    20591 1
   21424    20571    20607 1
   21425    20571    20575 1
   21426    20572    20573 1
   21427    20572    20590 1
   21428    20573    20574 1
   21429    20573    20588 1
   21430    20574    20575 1
   21431    20574    20578 1
   21432    20575    20576 1
   21433    20576    20577 1
   21434    20576    20623 1
   21435    20577    20578 1
   21436    20577    20579 1
   21437    20579    20580 1
   21438    20579    20584 1
   21439    20580    20581 1
   21440    20580    20624 1
   21441    20581    20582 1
   21442    20582    20583 1
   21443    20583    20584 1
   21444    20583    20587 1
   21445    20584    20585 1
   21446    20585    20586 1
   21447    20586    20587 1
   21448    20588    20589 1
   21449    20589    20590 1
   21450    20589    20703 1
   21451    20590    20625 1
   21452    20591    20592 1
   21453    20591    20626 1
   21454    20591    20627 1
   21455    20592    20593 1
   21456    20592    20599 1
   21457    20592    20628 1
   21458    20593    20594 1
   21459    20593    20629 1
   21460    20593    20630 1
   21461    20594    20595 1
   21462    20594    20631 1
   21463    20594    20632 1
   21464    20595    20596 1
   21465    20595    20633 1
   21466    20595    20634 1
   21467    20596    20597 1
   21468    20596    20635 1
   21469    20596    20636 1
   21470    20597    20598 1
   21471    20597    20637 1
   21472    20597    20638 1
   21473    20598    20639 1
   21474    20598    20640 1
   21475    20598    20641 1
   21476    20599    20600 1
   21477    20599    20642 1
   21478    20599    20643 1
   21479    20600    20601 1
   21480    20600    20644 1
   21481    20600    20645 1
   21482    20601    20602 1
   21483    20601    20646 1
   21484    20601    20647 1
   21485    20602    20603 1
   21486    20602    20648 1
   21487    20602    20649 1
   21488    20603    20604 1
   21489    20603    20650 1
   21490    20603    20651 1
   21491    20604    20605 1
   21492    20604    20652 1
   21493    20604    20653 1
   21494    20605    20606 1
   21495    20605    20654 1
   21496    20605    20655 1
   21497    20606    20656 1
   21498    20606    20657 1
   21499    20606    20658 1
   21500    20607    20608 1
   21501    20607    20659 1
   21502    20607    20660 1
   21503    20608    20609 1
   21504    20608    20615 1
   21505    20608    20661 1
   21506    20609    20610 1
   21507    20609    20662 1
   21508    20609    20663 1
   21509    20610    20611 1
   21510    20610    20664 1
   21511    20610    20665 1
   21512    20611    20612 1
   21513    20611    20666 1
   21514    20611    20667 1
   21515    20612    20613 1
   21516    20612    20668 1
   21517    20612    20669 1
   21518    20613    20614 1
   21519    20613    20670 1
   21520    20613    20671 1
   21521    20614    20672 1
   21522    20614    20673 1
   21523    20614    20674 1
   21524    20615    20616 1
   21525    20615    20675 1
   21526    20615    20676 1
   21527    20616    20617 1
   21528    20616    20677 1
   21529    20616    20678 1
   21530    20617    20618 1
   21531    20617    20679 1
   21532    20617    20680 1
   21533    20618    20619 1
   21534    20618    20681 1
   21535    20618    20682 1
   21536    20619    20620 1
   21537    20619    20683 1
   21538    20619    20684 1
   21539    20620    20621 1
   21540    20620    20685 1
   21541    20620    20686 1
   21542    20621    20622 1
   21543    20621    20687 1
   21544    20621    20688 1
   21545    20622    20689 1
   21546    20622    20690 1
   21547    20622    20691 1
   21548    20692    20693 1
   21549    20692    20712 1
   21550    20692    20728 1
   21551    20692    20696 1
   21552    20693    20694 1
   21553    20693    20711 1
   21554    20694    20695 1
   21555    20694    20709 1
   21556    20695    20696 1
   21557    20695    20699 1
   21558    20696    20697 1
   21559    20697    20698 1
   21560    20697    20744 1
   21561    20698    20699 1
   21562    20698    20700 1
   21563    20700    20701 1
   21564    20700    20705 1
   21565    20701    20702 1
   21566    20701    20745 1
   21567    20702    20703 1
   21568    20703    20704 1
   21569    20704    20705 1
   21570    20704    20708 1
   21571    20705    20706 1
   21572    20706    20707 1
   21573    20707    20708 1
   21574    20709    20710 1
   21575    20710    20711 1
   21576    20710    20824 1
   21577    20711    20746 1
   21578    20712    20713 1
   21579    20712    20747 1
   21580    20712    20748 1
   21581    20713    20714 1
   21582    20713    20720 1
   21583    20713    20749 1
   21584    20714    20715 1
   21585    20714    20750 1
   21586    20714    20751 1
   21587    20715    20716 1
   21588    20715    20752 1
   21589    20715    20753 1
   21590    20716    20717 1
   21591    20716    20754 1
   21592    20716    20755 1
   21593    20717    20718 1
   21594    20717    20756 1
   21595    20717    20757 1
   21596    20718    20719 1
   21597    20718    20758 1
   21598    20718    20759 1
   21599    20719    20760 1
   21600    20719    20761 1
   21601    20719    20762 1
   21602    20720    20721 1
   21603    20720    20763 1
   21604    20720    20764 1
   21605    20721    20722 1
   21606    20721    20765 1
   21607    20721    20766 1
   21608    20722    20723 1
   21609    20722    20767 1
   21610    20722    20768 1
   21611    20723    20724 1
   21612    20723    20769 1
   21613    20723    20770 1
   21614    20724    20725 1
   21615    20724    20771 1
   21616    20724    20772 1
   21617    20725    20726 1
   21618    20725    20773 1
   21619    20725    20774 1
   21620    20726    20727 1
   21621    20726    20775 1
   21622    20726    20776 1
   21623    20727    20777 1
   21624    20727    20778 1
   21625    20727    20779 1
   21626    20728    20729 1
   21627    20728    20780 1
   21628    20728    20781 1
   21629    20729    20730 1
   21630    20729    20736 1
   21631    20729    20782 1
   21632    20730    20731 1
   21633    20730    20783 1
   21634    20730    20784 1
   21635    20731    20732 1
   21636    20731    20785 1
   21637    20731    20786 1
   21638    20732    20733 1
   21639    20732    20787 1
   21640    20732    20788 1
   21641    20733    20734 1
   21642    20733    20789 1
   21643    20733    20790 1
   21644    20734    20735 1
   21645    20734    20791 1
   21646    20734    20792 1
   21647    20735    20793 1
   21648    20735    20794 1
   21649    20735    20795 1
   21650    20736    20737 1
   21651    20736    20796 1
   21652    20736    20797 1
   21653    20737    20738 1
   21654    20737    20798 1
   21655    20737    20799 1
   21656    20738    20739 1
   21657    20738    20800 1
   21658    20738    20801 1
   21659    20739    20740 1
   21660    20739    20802 1
   21661    20739    20803 1
   21662    20740    20741 1
   21663    20740    20804 1
   21664    20740    20805 1
   21665    20741    20742 1
   21666    20741    20806 1
   21667    20741    20807 1
   21668    20742    20743 1
   21669    20742    20808 1
   21670    20742    20809 1
   21671    20743    20810 1
   21672    20743    20811 1
   21673    20743    20812 1
   21674    20813    20814 1
   21675    20813    20833 1
   21676    20813    20849 1
   21677    20813    20817 1
   21678    20814    20815 1
   21679    20814    20832 1
   21680    20815    20816 1
   21681    20815    20830 1
   21682    20816    20817 1
   21683    20816    20820 1
   21684    20817    20818 1
   21685    20818    20819 1
   21686    20818    20865 1
   21687    20819    20820 1
   21688    20819    20821 1
   21689    20821    20822 1
   21690    20821    20826 1
   21691    20822    20823 1
   21692    20822    20866 1
   21693    20823    20824 1
   21694    20824    20825 1
   21695    20825    20826 1
   21696    20825    20829 1
   21697    20826    20827 1
   21698    20827    20828 1
   21699    20828    20829 1
   21700    20830    20831 1
   21701    20831    20832 1
   21702    20831    20945 1
   21703    20832    20867 1
   21704    20833    20834 1
   21705    20833    20868 1
   21706    20833    20869 1
   21707    20834    20835 1
   21708    20834    20841 1
   21709    20834    20870 1
   21710    20835    20836 1
   21711    20835    20871 1
   21712    20835    20872 1
   21713    20836    20837 1
   21714    20836    20873 1
   21715    20836    20874 1
   21716    20837    20838 1
   21717    20837    20875 1
   21718    20837    20876 1
   21719    20838    20839 1
   21720    20838    20877 1
   21721    20838    20878 1
   21722    20839    20840 1
   21723    20839    20879 1
   21724    20839    20880 1
   21725    20840    20881 1
   21726    20840    20882 1
   21727    20840    20883 1
   21728    20841    20842 1
   21729    20841    20884 1
   21730    20841    20885 1
   21731    20842    20843 1
   21732    20842    20886 1
   21733    20842    20887 1
   21734    20843    20844 1
   21735    20843    20888 1
   21736    20843    20889 1
   21737    20844    20845 1
   21738    20844    20890 1
   21739    20844    20891 1
   21740    20845    20846 1
   21741    20845    20892 1
   21742    20845    20893 1
   21743    20846    20847 1
   21744    20846    20894 1
   21745    20846    20895 1
   21746    20847    20848 1
   21747    20847    20896 1
   21748    20847    20897 1
   21749    20848    20898 1
   21750    20848    20899 1
   21751    20848    20900 1
   21752    20849    20850 1
   21753    20849    20901 1
   21754    20849    20902 1
   21755    20850    20851 1
   21756    20850    20857 1
   21757    20850    20903 1
   21758    20851    20852 1
   21759    20851    20904 1
   21760    20851    20905 1
   21761    20852    20853 1
   21762    20852    20906 1
   21763    20852    20907 1
   21764    20853    20854 1
   21765    20853    20908 1
   21766    20853    20909 1
   21767    20854    20855 1
   21768    20854    20910 1
   21769    20854    20911 1
   21770    20855    20856 1
   21771    20855    20912 1
   21772    20855    20913 1
   21773    20856    20914 1
   21774    20856    20915 1
   21775    20856    20916 1
   21776    20857    20858 1
   21777    20857    20917 1
   21778    20857    20918 1
   21779    20858    20859 1
   21780    20858    20919 1
   21781    20858    20920 1
   21782    20859    20860 1
   21783    20859    20921 1
   21784    20859    20922 1
   21785    20860    20861 1
   21786    20860    20923 1
   21787    20860    20924 1
   21788    20861    20862 1
   21789    20861    20925 1
   21790    20861    20926 1
   21791    20862    20863 1
   21792    20862    20927 1
   21793    20862    20928 1
   21794    20863    20864 1
   21795    20863    20929 1
   21796    20863    20930 1
   21797    20864    20931 1
   21798    20864    20932 1
   21799    20864    20933 1
   21800    20934    20935 1
   21801    20934    20954 1
   21802    20934    20970 1
   21803    20934    20938 1
   21804    20935    20936 1
   21805    20935    20953 1
   21806    20936    20937 1
   21807    20936    20951 1
   21808    20937    20938 1
   21809    20937    20941 1
   21810    20938    20939 1
   21811    20939    20940 1
   21812    20939    20986 1
   21813    20940    20941 1
   21814    20940    20942 1
   21815    20942    20943 1
   21816    20942    20947 1
   21817    20943    20944 1
   21818    20943    20987 1
   21819    20944    20945 1
   21820    20945    20946 1
   21821    20946    20947 1
   21822    20946    20950 1
   21823    20947    20948 1
   21824    20948    20949 1
   21825    20949    20950 1
   21826    20951    20952 1
   21827    20952    20953 1
   21828    20952    21066 1
   21829    20953    20988 1
   21830    20954    20955 1
   21831    20954    20989 1
   21832    20954    20990 1
   21833    20955    20956 1
   21834    20955    20962 1
   21835    20955    20991 1
   21836    20956    20957 1
   21837    20956    20992 1
   21838    20956    20993 1
   21839    20957    20958 1
   21840    20957    20994 1
   21841    20957    20995 1
   21842    20958    20959 1
   21843    20958    20996 1
   21844    20958    20997 1
   21845    20959    20960 1
   21846    20959    20998 1
   21847    20959    20999 1
   21848    20960    20961 1
   21849    20960    21000 1
   21850    20960    21001 1
   21851    20961    21002 1
   21852    20961    21003 1
   21853    20961    21004 1
   21854    20962    20963 1
   21855    20962    21005 1
   21856    20962    21006 1
   21857    20963    20964 1
   21858    20963    21007 1
   21859    20963    21008 1
   21860    20964    20965 1
   21861    20964    21009 1
   21862    20964    21010 1
   21863    20965    20966 1
   21864    20965    21011 1
   21865    20965    21012 1
   21866    20966    20967 1
   21867    20966    21013 1
   21868    20966    21014 1
   21869    20967    20968 1
   21870    20967    21015 1
   21871    20967    21016 1
   21872    20968    20969 1
   21873    20968    21017 1
   21874    20968    21018 1
   21875    20969    21019 1
   21876    20969    21020 1
   21877    20969    21021 1
   21878    20970    20971 1
   21879    20970    21022 1
   21880    20970    21023 1
   21881    20971    20972 1
   21882    20971    20978 1
   21883    20971    21024 1
   21884    20972    20973 1
   21885    20972    21025 1
   21886    20972    21026 1
   21887    20973    20974 1
   21888    20973    21027 1
   21889    20973    21028 1
   21890    20974    20975 1
   21891    20974    21029 1
   21892    20974    21030 1
   21893    20975    20976 1
   21894    20975    21031 1
   21895    20975    21032 1
   21896    20976    20977 1
   21897    20976    21033 1
   21898    20976    21034 1
   21899    20977    21035 1
   21900    20977    21036 1
   21901    20977    21037 1
   21902    20978    20979 1
   21903    20978    21038 1
   21904    20978    21039 1
   21905    20979    20980 1
   21906    20979    21040 1
   21907    20979    21041 1
   21908    20980    20981 1
   21909    20980    21042 1
   21910    20980    21043 1
   21911    20981    20982 1
   21912    20981    21044 1
   21913    20981    21045 1
   21914    20982    20983 1
   21915    20982    21046 1
   21916    20982    21047 1
   21917    20983    20984 1
   21918    20983    21048 1
   21919    20983    21049 1
   21920    20984    20985 1
   21921    20984    21050 1
   21922    20984    21051 1
   21923    20985    21052 1
   21924    20985    21053 1
   21925    20985    21054 1
   21926    21055    21056 1
   21927    21055    21075 1
   21928    21055    21091 1
   21929    21055    21059 1
   21930    21056    21057 1
   21931    21056    21074 1
   21932    21057    21058 1
   21933    21057    21072 1
   21934    21058    21059 1
   21935    21058    21062 1
   21936    21059    21060 1
   21937    21060    21061 1
   21938    21060    21107 1
   21939    21061    21062 1
   21940    21061    21063 1
   21941    21063    21064 1
   21942    21063    21068 1
   21943    21064    21065 1
   21944    21064    21108 1
   21945    21065    21066 1
   21946    21066    21067 1
   21947    21067    21068 1
   21948    21067    21071 1
   21949    21068    21069 1
   21950    21069    21070 1
   21951    21070    21071 1
   21952    21072    21073 1
   21953    21073    21074 1
   21954    21073    21187 1
   21955    21074    21109 1
   21956    21075    21076 1
   21957    21075    21110 1
   21958    21075    21111 1
   21959    21076    21077 1
   21960    21076    21083 1
   21961    21076    21112 1
   21962    21077    21078 1
   21963    21077    21113 1
   21964    21077    21114 1
   21965    21078    21079 1
   21966    21078    21115 1
   21967    21078    21116 1
   21968    21079    21080 1
   21969    21079    21117 1
   21970    21079    21118 1
   21971    21080    21081 1
   21972    21080    21119 1
   21973    21080    21120 1
   21974    21081    21082 1
   21975    21081    21121 1
   21976    21081    21122 1
   21977    21082    21123 1
   21978    21082    21124 1
   21979    21082    21125 1
   21980    21083    21084 1
   21981    21083    21126 1
   21982    21083    21127 1
   21983    21084    21085 1
   21984    21084    21128 1
   21985    21084    21129 1
   21986    21085    21086 1
   21987    21085    21130 1
   21988    21085    21131 1
   21989    21086    21087 1
   21990    21086    21132 1
   21991    21086    21133 1
   21992    21087    21088 1
   21993    21087    21134 1
   21994    21087    21135 1
   21995    21088    21089 1
   21996    21088    21136 1
   21997    21088    21137 1
   21998    21089    21090 1
   21999    21089    21138 1
   22000    21089    21139 1
   22001    21090    21140 1
   22002    21090    21141 1
   22003    21090    21142 1
   22004    21091    21092 1
   22005    21091    21143 1
   22006    21091    21144 1
   22007    21092    21093 1
   22008    21092    21099 1
   22009    21092    21145 1
   22010    21093    21094 1
   22011    21093    21146 1
   22012    21093    21147 1
   22013    21094    21095 1
   22014    21094    21148 1
   22015    21094    21149 1
   22016    21095    21096 1
   22017    21095    21150 1
   22018    21095    21151 1
   22019    21096    21097 1
   22020    21096    21152 1
   22021    21096    21153 1
   22022    21097    21098 1
   22023    21097    21154 1
   22024    21097    21155 1
   22025    21098    21156 1
   22026    21098    21157 1
   22027    21098    21158 1
   22028    21099    21100 1
   22029    21099    21159 1
   22030    21099    21160 1
   22031    21100    21101 1
   22032    21100    21161 1
   22033    21100    21162 1
   22034    21101    21102 1
   22035    21101    21163 1
   22036    21101    21164 1
   22037    21102    21103 1
   22038    21102    21165 1
   22039    21102    21166 1
   22040    21103    21104 1
   22041    21103    21167 1
   22042    21103    21168 1
   22043    21104    21105 1
   22044    21104    21169 1
   22045    21104    21170 1
   22046    21105    21106 1
   22047    21105    21171 1
   22048    21105    21172 1
   22049    21106    21173 1
   22050    21106    21174 1
   22051    21106    21175 1
   22052    21176    21177 1
   22053    21176    21196 1
   22054    21176    21212 1
   22055    21176    21180 1
   22056    21177    21178 1
   22057    21177    21195 1
   22058    21178    21179 1
   22059    21178    21193 1
   22060    21179    21180 1
   22061    21179    21183 1
   22062    21180    21181 1
   22063    21181    21182 1
   22064    21181    21228 1
   22065    21182    21183 1
   22066    21182    21184 1
   22067    21184    21185 1
   22068    21184    21189 1
   22069    21185    21186 1
   22070    21185    21229 1
   22071    21186    21187 1
   22072    21187    21188 1
   22073    21188    21189 1
   22074    21188    21192 1
   22075    21189    21190 1
   22076    21190    21191 1
   22077    21191    21192 1
   22078    21193    21194 1
   22079    21194    21195 1
   22080    21194    21308 1
   22081    21195    21230 1
   22082    21196    21197 1
   22083    21196    21231 1
   22084    21196    21232 1
   22085    21197    21198 1
   22086    21197    21204 1
   22087    21197    21233 1
   22088    21198    21199 1
   22089    21198    21234 1
   22090    21198    21235 1
   22091    21199    21200 1
   22092    21199    21236 1
   22093    21199    21237 1
   22094    21200    21201 1
   22095    21200    21238 1
   22096    21200    21239 1
   22097    21201    21202 1
   22098    21201    21240 1
   22099    21201    21241 1
   22100    21202    21203 1
   22101    21202    21242 1
   22102    21202    21243 1
   22103    21203    21244 1
   22104    21203    21245 1
   22105    21203    21246 1
   22106    21204    21205 1
   22107    21204    21247 1
   22108    21204    21248 1
   22109    21205    21206 1
   22110    21205    21249 1
   22111    21205    21250 1
   22112    21206    21207 1
   22113    21206    21251 1
   22114    21206    21252 1
   22115    21207    21208 1
   22116    21207    21253 1
   22117    21207    21254 1
   22118    21208    21209 1
   22119    21208    21255 1
   22120    21208    21256 1
   22121    21209    21210 1
   22122    21209    21257 1
   22123    21209    21258 1
   22124    21210    21211 1
   22125    21210    21259 1
   22126    21210    21260 1
   22127    21211    21261 1
   22128    21211    21262 1
   22129    21211    21263 1
   22130    21212    21213 1
   22131    21212    21264 1
   22132    21212    21265 1
   22133    21213    21214 1
   22134    21213    21220 1
   22135    21213    21266 1
   22136    21214    21215 1
   22137    21214    21267 1
   22138    21214    21268 1
   22139    21215    21216 1
   22140    21215    21269 1
   22141    21215    21270 1
   22142    21216    21217 1
   22143    21216    21271 1
   22144    21216    21272 1
   22145    21217    21218 1
   22146    21217    21273 1
   22147    21217    21274 1
   22148    21218    21219 1
   22149    21218    21275 1
   22150    21218    21276 1
   22151    21219    21277 1
   22152    21219    21278 1
   22153    21219    21279 1
   22154    21220    21221 1
   22155    21220    21280 1
   22156    21220    21281 1
   22157    21221    21222 1
   22158    21221    21282 1
   22159    21221    21283 1
   22160    21222    21223 1
   22161    21222    21284 1
   22162    21222    21285 1
   22163    21223    21224 1
   22164    21223    21286 1
   22165    21223    21287 1
   22166    21224    21225 1
   22167    21224    21288 1
   22168    21224    21289 1
   22169    21225    21226 1
   22170    21225    21290 1
   22171    21225    21291 1
   22172    21226    21227 1
   22173    21226    21292 1
   22174    21226    21293 1
   22175    21227    21294 1
   22176    21227    21295 1
   22177    21227    21296 1
   22178    21297    21298 1
   22179    21297    21317 1
   22180    21297    21333 1
   22181    21297    21301 1
   22182    21298    21299 1
   22183    21298    21316 1
   22184    21299    21300 1
   22185    21299    21314 1
   22186    21300    21301 1
   22187    21300    21304 1
   22188    21301    21302 1
   22189    21302    21303 1
   22190    21302    21349 1
   22191    21303    21304 1
   22192    21303    21305 1
   22193    21305    21306 1
   22194    21305    21310 1
   22195    21306    21307 1
   22196    21306    21350 1
   22197    21307    21308 1
   22198    21308    21309 1
   22199    21309    21310 1
   22200    21309    21313 1
   22201    21310    21311 1
   22202    21311    21312 1
   22203    21312    21313 1
   22204    21314    21315 1
   22205    21315    21316 1
   22206    21315    21429 1
   22207    21316    21351 1
   22208    21317    21318 1
   22209    21317    21352 1
   22210    21317    21353 1
   22211    21318    21319 1
   22212    21318    21325 1
   22213    21318    21354 1
   22214    21319    21320 1
   22215    21319    21355 1
   22216    21319    21356 1
   22217    21320    21321 1
   22218    21320    21357 1
   22219    21320    21358 1
   22220    21321    21322 1
   22221    21321    21359 1
   22222    21321    21360 1
   22223    21322    21323 1
   22224    21322    21361 1
   22225    21322    21362 1
   22226    21323    21324 1
   22227    21323    21363 1
   22228    21323    21364 1
   22229    21324    21365 1
   22230    21324    21366 1
   22231    21324    21367 1
   22232    21325    21326 1
   22233    21325    21368 1
   22234    21325    21369 1
   22235    21326    21327 1
   22236    21326    21370 1
   22237    21326    21371 1
   22238    21327    21328 1
   22239    21327    21372 1
   22240    21327    21373 1
   22241    21328    21329 1
   22242    21328    21374 1
   22243    21328    21375 1
   22244    21329    21330 1
   22245    21329    21376 1
   22246    21329    21377 1
   22247    21330    21331 1
   22248    21330    21378 1
   22249    21330    21379 1
   22250    21331    21332 1
   22251    21331    21380 1
   22252    21331    21381 1
   22253    21332    21382 1
   22254    21332    21383 1
   22255    21332    21384 1
   22256    21333    21334 1
   22257    21333    21385 1
   22258    21333    21386 1
   22259    21334    21335 1
   22260    21334    21341 1
   22261    21334    21387 1
   22262    21335    21336 1
   22263    21335    21388 1
   22264    21335    21389 1
   22265    21336    21337 1
   22266    21336    21390 1
   22267    21336    21391 1
   22268    21337    21338 1
   22269    21337    21392 1
   22270    21337    21393 1
   22271    21338    21339 1
   22272    21338    21394 1
   22273    21338    21395 1
   22274    21339    21340 1
   22275    21339    21396 1
   22276    21339    21397 1
   22277    21340    21398 1
   22278    21340    21399 1
   22279    21340    21400 1
   22280    21341    21342 1
   22281    21341    21401 1
   22282    21341    21402 1
   22283    21342    21343 1
   22284    21342    21403 1
   22285    21342    21404 1
   22286    21343    21344 1
   22287    21343    21405 1
   22288    21343    21406 1
   22289    21344    21345 1
   22290    21344    21407 1
   22291    21344    21408 1
   22292    21345    21346 1
   22293    21345    21409 1
   22294    21345    21410 1
   22295    21346    21347 1
   22296    21346    21411 1
   22297    21346    21412 1
   22298    21347    21348 1
   22299    21347    21413 1
   22300    21347    21414 1
   22301    21348    21415 1
   22302    21348    21416 1
   22303    21348    21417 1
   22304    21418    21419 1
   22305    21418    21438 1
   22306    21418    21454 1
   22307    21418    21422 1
   22308    21419    21420 1
   22309    21419    21437 1
   22310    21420    21421 1
   22311    21420    21435 1
   22312    21421    21422 1
   22313    21421    21425 1
   22314    21422    21423 1
   22315    21423    21424 1
   22316    21423    21470 1
   22317    21424    21425 1
   22318    21424    21426 1
   22319    21426    21427 1
   22320    21426    21431 1
   22321    21427    21428 1
   22322    21427    21471 1
   22323    21428    21429 1
   22324    21429    21430 1
   22325    21430    21431 1
   22326    21430    21434 1
   22327    21431    21432 1
   22328    21432    21433 1
   22329    21433    21434 1
   22330    21435    21436 1
   22331    21436    21437 1
   22332    21436    21550 1
   22333    21437    21472 1
   22334    21438    21439 1
   22335    21438    21473 1
   22336    21438    21474 1
   22337    21439    21440 1
   22338    21439    21446 1
   22339    21439    21475 1
   22340    21440    21441 1
   22341    21440    21476 1
   22342    21440    21477 1
   22343    21441    21442 1
   22344    21441    21478 1
   22345    21441    21479 1
   22346    21442    21443 1
   22347    21442    21480 1
   22348    21442    21481 1
   22349    21443    21444 1
   22350    21443    21482 1
   22351    21443    21483 1
   22352    21444    21445 1
   22353    21444    21484 1
   22354    21444    21485 1
   22355    21445    21486 1
   22356    21445    21487 1
   22357    21445    21488 1
   22358    21446    21447 1
   22359    21446    21489 1
   22360    21446    21490 1
   22361    21447    21448 1
   22362    21447    21491 1
   22363    21447    21492 1
   22364    21448    21449 1
   22365    21448    21493 1
   22366    21448    21494 1
   22367    21449    21450 1
   22368    21449    21495 1
   22369    21449    21496 1
   22370    21450    21451 1
   22371    21450    21497 1
   22372    21450    21498 1
   22373    21451    21452 1
   22374    21451    21499 1
   22375    21451    21500 1
   22376    21452    21453 1
   22377    21452    21501 1
   22378    21452    21502 1
   22379    21453    21503 1
   22380    21453    21504 1
   22381    21453    21505 1
   22382    21454    21455 1
   22383    21454    21506 1
   22384    21454    21507 1
   22385    21455    21456 1
   22386    21455    21462 1
   22387    21455    21508 1
   22388    21456    21457 1
   22389    21456    21509 1
   22390    21456    21510 1
   22391    21457    21458 1
   22392    21457    21511 1
   22393    21457    21512 1
   22394    21458    21459 1
   22395    21458    21513 1
   22396    21458    21514 1
   22397    21459    21460 1
   22398    21459    21515 1
   22399    21459    21516 1
   22400    21460    21461 1
   22401    21460    21517 1
   22402    21460    21518 1
   22403    21461    21519 1
   22404    21461    21520 1
   22405    21461    21521 1
   22406    21462    21463 1
   22407    21462    21522 1
   22408    21462    21523 1
   22409    21463    21464 1
   22410    21463    21524 1
   22411    21463    21525 1
   22412    21464    21465 1
   22413    21464    21526 1
   22414    21464    21527 1
   22415    21465    21466 1
   22416    21465    21528 1
   22417    21465    21529 1
   22418    21466    21467 1
   22419    21466    21530 1
   22420    21466    21531 1
   22421    21467    21468 1
   22422    21467    21532 1
   22423    21467    21533 1
   22424    21468    21469 1
   22425    21468    21534 1
   22426    21468    21535 1
   22427    21469    21536 1
   22428    21469    21537 1
   22429    21469    21538 1
   22430    21539    21540 1
   22431    21539    21559 1
   22432    21539    21575 1
   22433    21539    21543 1
   22434    21540    21541 1
   22435    21540    21558 1
   22436    21541    21542 1
   22437    21541    21556 1
   22438    21542    21543 1
   22439    21542    21546 1
   22440    21543    21544 1
   22441    21544    21545 1
   22442    21544    21591 1
   22443    21545    21546 1
   22444    21545    21547 1
   22445    21547    21548 1
   22446    21547    21552 1
   22447    21548    21549 1
   22448    21548    21592 1
   22449    21549    21550 1
   22450    21550    21551 1
   22451    21551    21552 1
   22452    21551    21555 1
   22453    21552    21553 1
   22454    21553    21554 1
   22455    21554    21555 1
   22456    21556    21557 1
   22457    21557    21558 1
   22458    21557    21671 1
   22459    21558    21593 1
   22460    21559    21560 1
   22461    21559    21594 1
   22462    21559    21595 1
   22463    21560    21561 1
   22464    21560    21567 1
   22465    21560    21596 1
   22466    21561    21562 1
   22467    21561    21597 1
   22468    21561    21598 1
   22469    21562    21563 1
   22470    21562    21599 1
   22471    21562    21600 1
   22472    21563    21564 1
   22473    21563    21601 1
   22474    21563    21602 1
   22475    21564    21565 1
   22476    21564    21603 1
   22477    21564    21604 1
   22478    21565    21566 1
   22479    21565    21605 1
   22480    21565    21606 1
   22481    21566    21607 1
   22482    21566    21608 1
   22483    21566    21609 1
   22484    21567    21568 1
   22485    21567    21610 1
   22486    21567    21611 1
   22487    21568    21569 1
   22488    21568    21612 1
   22489    21568    21613 1
   22490    21569    21570 1
   22491    21569    21614 1
   22492    21569    21615 1
   22493    21570    21571 1
   22494    21570    21616 1
   22495    21570    21617 1
   22496    21571    21572 1
   22497    21571    21618 1
   22498    21571    21619 1
   22499    21572    21573 1
   22500    21572    21620 1
   22501    21572    21621 1
   22502    21573    21574 1
   22503    21573    21622 1
   22504    21573    21623 1
   22505    21574    21624 1
   22506    21574    21625 1
   22507    21574    21626 1
   22508    21575    21576 1
   22509    21575    21627 1
   22510    21575    21628 1
   22511    21576    21577 1
   22512    21576    21583 1
   22513    21576    21629 1
   22514    21577    21578 1
   22515    21577    21630 1
   22516    21577    21631 1
   22517    21578    21579 1
   22518    21578    21632 1
   22519    21578    21633 1
   22520    21579    21580 1
   22521    21579    21634 1
   22522    21579    21635 1
   22523    21580    21581 1
   22524    21580    21636 1
   22525    21580    21637 1
   22526    21581    21582 1
   22527    21581    21638 1
   22528    21581    21639 1
   22529    21582    21640 1
   22530    21582    21641 1
   22531    21582    21642 1
   22532    21583    21584 1
   22533    21583    21643 1
   22534    21583    21644 1
   22535    21584    21585 1
   22536    21584    21645 1
   22537    21584    21646 1
   22538    21585    21586 1
   22539    21585    21647 1
   22540    21585    21648 1
   22541    21586    21587 1
   22542    21586    21649 1
   22543    21586    21650 1
   22544    21587    21588 1
   22545    21587    21651 1
   22546    21587    21652 1
   22547    21588    21589 1
   22548    21588    21653 1
   22549    21588    21654 1
   22550    21589    21590 1
   22551    21589    21655 1
   22552    21589    21656 1
   22553    21590    21657 1
   22554    21590    21658 1
   22555    21590    21659 1
   22556    21660    21661 1
   22557    21660    21680 1
   22558    21660    21696 1
   22559    21660    21664 1
   22560    21661    21662 1
   22561    21661    21679 1
   22562    21662    21663 1
   22563    21662    21677 1
   22564    21663    21664 1
   22565    21663    21667 1
   22566    21664    21665 1
   22567    21665    21666 1
   22568    21665    21712 1
   22569    21666    21667 1
   22570    21666    21668 1
   22571    21668    21669 1
   22572    21668    21673 1
   22573    21669    21670 1
   22574    21669    21713 1
   22575    21670    21671 1
   22576    21671    21672 1
   22577    21672    21673 1
   22578    21672    21676 1
   22579    21673    21674 1
   22580    21674    21675 1
   22581    21675    21676 1
   22582    21677    21678 1
   22583    21678    21679 1
   22584    21678    21792 1
   22585    21679    21714 1
   22586    21680    21681 1
   22587    21680    21715 1
   22588    21680    21716 1
   22589    21681    21682 1
   22590    21681    21688 1
   22591    21681    21717 1
   22592    21682    21683 1
   22593    21682    21718 1
   22594    21682    21719 1
   22595    21683    21684 1
   22596    21683    21720 1
   22597    21683    21721 1
   22598    21684    21685 1
   22599    21684    21722 1
   22600    21684    21723 1
   22601    21685    21686 1
   22602    21685    21724 1
   22603    21685    21725 1
   22604    21686    21687 1
   22605    21686    21726 1
   22606    21686    21727 1
   22607    21687    21728 1
   22608    21687    21729 1
   22609    21687    21730 1
   22610    21688    21689 1
   22611    21688    21731 1
   22612    21688    21732 1
   22613    21689    21690 1
   22614    21689    21733 1
   22615    21689    21734 1
   22616    21690    21691 1
   22617    21690    21735 1
   22618    21690    21736 1
   22619    21691    21692 1
   22620    21691    21737 1
   22621    21691    21738 1
   22622    21692    21693 1
   22623    21692    21739 1
   22624    21692    21740 1
   22625    21693    21694 1
   22626    21693    21741 1
   22627    21693    21742 1
   22628    21694    21695 1
   22629    21694    21743 1
   22630    21694    21744 1
   22631    21695    21745 1
   22632    21695    21746 1
   22633    21695    21747 1
   22634    21696    21697 1
   22635    21696    21748 1
   22636    21696    21749 1
   22637    21697    21698 1
   22638    21697    21704 1
   22639    21697    21750 1
   22640    21698    21699 1
   22641    21698    21751 1
   22642    21698    21752 1
   22643    21699    21700 1
   22644    21699    21753 1
   22645    21699    21754 1
   22646    21700    21701 1
   22647    21700    21755 1
   22648    21700    21756 1
   22649    21701    21702 1
   22650    21701    21757 1
   22651    21701    21758 1
   22652    21702    21703 1
   22653    21702    21759 1
   22654    21702    21760 1
   22655    21703    21761 1
   22656    21703    21762 1
   22657    21703    21763 1
   22658    21704    21705 1
   22659    21704    21764 1
   22660    21704    21765 1
   22661    21705    21706 1
   22662    21705    21766 1
   22663    21705    21767 1
   22664    21706    21707 1
   22665    21706    21768 1
   22666    21706    21769 1
   22667    21707    21708 1
   22668    21707    21770 1
   22669    21707    21771 1
   22670    21708    21709 1
   22671    21708    21772 1
   22672    21708    21773 1
   22673    21709    21710 1
   22674    21709    21774 1
   22675    21709    21775 1
   22676    21710    21711 1
   22677    21710    21776 1
   22678    21710    21777 1
   22679    21711    21778 1
   22680    21711    21779 1
   22681    21711    21780 1
   22682    21781    21782 1
   22683    21781    21801 1
   22684    21781    21817 1
   22685    21781    21785 1
   22686    21782    21783 1
   22687    21782    21800 1
   22688    21783    21784 1
   22689    21783    21798 1
   22690    21784    21785 1
   22691    21784    21788 1
   22692    21785    21786 1
   22693    21786    21787 1
   22694    21786    21833 1
   22695    21787    21788 1
   22696    21787    21789 1
   22697    21789    21790 1
   22698    21789    21794 1
   22699    21790    21791 1
   22700    21790    21834 1
   22701    21791    21792 1
   22702    21792    21793 1
   22703    21793    21794 1
   22704    21793    21797 1
   22705    21794    21795 1
   22706    21795    21796 1
   22707    21796    21797 1
   22708    21798    21799 1
   22709    21799    21800 1
   22710    21799    21913 1
   22711    21800    21835 1
   22712    21801    21802 1
   22713    21801    21836 1
   22714    21801    21837 1
   22715    21802    21803 1
   22716    21802    21809 1
   22717    21802    21838 1
   22718    21803    21804 1
   22719    21803    21839 1
   22720    21803    21840 1
   22721    21804    21805 1
   22722    21804    21841 1
   22723    21804    21842 1
   22724    21805    21806 1
   22725    21805    21843 1
   22726    21805    21844 1
   22727    21806    21807 1
   22728    21806    21845 1
   22729    21806    21846 1
   22730    21807    21808 1
   22731    21807    21847 1
   22732    21807    21848 1
   22733    21808    21849 1
   22734    21808    21850 1
   22735    21808    21851 1
   22736    21809    21810 1
   22737    21809    21852 1
   22738    21809    21853 1
   22739    21810    21811 1
   22740    21810    21854 1
   22741    21810    21855 1
   22742    21811    21812 1
   22743    21811    21856 1
   22744    21811    21857 1
   22745    21812    21813 1
   22746    21812    21858 1
   22747    21812    21859 1
   22748    21813    21814 1
   22749    21813    21860 1
   22750    21813    21861 1
   22751    21814    21815 1
   22752    21814    21862 1
   22753    21814    21863 1
   22754    21815    21816 1
   22755    21815    21864 1
   22756    21815    21865 1
   22757    21816    21866 1
   22758    21816    21867 1
   22759    21816    21868 1
   22760    21817    21818 1
   22761    21817    21869 1
   22762    21817    21870 1
   22763    21818    21819 1
   22764    21818    21825 1
   22765    21818    21871 1
   22766    21819    21820 1
   22767    21819    21872 1
   22768    21819    21873 1
   22769    21820    21821 1
   22770    21820    21874 1
   22771    21820    21875 1
   22772    21821    21822 1
   22773    21821    21876 1
   22774    21821    21877 1
   22775    21822    21823 1
   22776    21822    21878 1
   22777    21822    21879 1
   22778    21823    21824 1
   22779    21823    21880 1
   22780    21823    21881 1
   22781    21824    21882 1
   22782    21824    21883 1
   22783    21824    21884 1
   22784    21825    21826 1
   22785    21825    21885 1
   22786    21825    21886 1
   22787    21826    21827 1
   22788    21826    21887 1
   22789    21826    21888 1
   22790    21827    21828 1
   22791    21827    21889 1
   22792    21827    21890 1
   22793    21828    21829 1
   22794    21828    21891 1
   22795    21828    21892 1
   22796    21829    21830 1
   22797    21829    21893 1
   22798    21829    21894 1
   22799    21830    21831 1
   22800    21830    21895 1
   22801    21830    21896 1
   22802    21831    21832 1
   22803    21831    21897 1
   22804    21831    21898 1
   22805    21832    21899 1
   22806    21832    21900 1
   22807    21832    21901 1
   22808    21902    21903 1
   22809    21902    21922 1
   22810    21902    21938 1
   22811    21902    21906 1
   22812    21903    21904 1
   22813    21903    21921 1
   22814    21904    21905 1
   22815    21904    21919 1
   22816    21905    21906 1
   22817    21905    21909 1
   22818    21906    21907 1
   22819    21907    21908 1
   22820    21907    21954 1
   22821    21908    21909 1
   22822    21908    21910 1
   22823    21910    21911 1
   22824    21910    21915 1
   22825    21911    21912 1
   22826    21911    21955 1
   22827    21912    21913 1
   22828    21913    21914 1
   22829    21914    21915 1
   22830    21914    21918 1
   22831    21915    21916 1
   22832    21916    21917 1
   22833    21917    21918 1
   22834    21919    21920 1
   22835    21920    21921 1
   22836    21920    22034 1
   22837    21921    21956 1
   22838    21922    21923 1
   22839    21922    21957 1
   22840    21922    21958 1
   22841    21923    21924 1
   22842    21923    21930 1
   22843    21923    21959 1
   22844    21924    21925 1
   22845    21924    21960 1
   22846    21924    21961 1
   22847    21925    21926 1
   22848    21925    21962 1
   22849    21925    21963 1
   22850    21926    21927 1
   22851    21926    21964 1
   22852    21926    21965 1
   22853    21927    21928 1
   22854    21927    21966 1
   22855    21927    21967 1
   22856    21928    21929 1
   22857    21928    21968 1
   22858    21928    21969 1
   22859    21929    21970 1
   22860    21929    21971 1
   22861    21929    21972 1
   22862    21930    21931 1
   22863    21930    21973 1
   22864    21930    21974 1
   22865    21931    21932 1
   22866    21931    21975 1
   22867    21931    21976 1
   22868    21932    21933 1
   22869    21932    21977 1
   22870    21932    21978 1
   22871    21933    21934 1
   22872    21933    21979 1
   22873    21933    21980 1
   22874    21934    21935 1
   22875    21934    21981 1
   22876    21934    21982 1
   22877    21935    21936 1
   22878    21935    21983 1
   22879    21935    21984 1
   22880    21936    21937 1
   22881    21936    21985 1
   22882    21936    21986 1
   22883    21937    21987 1
   22884    21937    21988 1
   22885    21937    21989 1
   22886    21938    21939 1
   22887    21938    21990 1
   22888    21938    21991 1
   22889    21939    21940 1
   22890    21939    21946 1
   22891    21939    21992 1
   22892    21940    21941 1
   22893    21940    21993 1
   22894    21940    21994 1
   22895    21941    21942 1
   22896    21941    21995 1
   22897    21941    21996 1
   22898    21942    21943 1
   22899    21942    21997 1
   22900    21942    21998 1
   22901    21943    21944 1
   22902    21943    21999 1
   22903    21943    22000 1
   22904    21944    21945 1
   22905    21944    22001 1
   22906    21944    22002 1
   22907    21945    22003 1
   22908    21945    22004 1
   22909    21945    22005 1
   22910    21946    21947 1
   22911    21946    22006 1
   22912    21946    22007 1
   22913    21947    21948 1
   22914    21947    22008 1
   22915    21947    22009 1
   22916    21948    21949 1
   22917    21948    22010 1
   22918    21948    22011 1
   22919    21949    21950 1
   22920    21949    22012 1
   22921    21949    22013 1
   22922    21950    21951 1
   22923    21950    22014 1
   22924    21950    22015 1
   22925    21951    21952 1
   22926    21951    22016 1
   22927    21951    22017 1
   22928    21952    21953 1
   22929    21952    22018 1
   22930    21952    22019 1
   22931    21953    22020 1
   22932    21953    22021 1
   22933    21953    22022 1
   22934    22023    22024 1
   22935    22023    22043 1
   22936    22023    22059 1
   22937    22023    22027 1
   22938    22024    22025 1
   22939    22024    22042 1
   22940    22025    22026 1
   22941    22025    22040 1
   22942    22026    22027 1
   22943    22026    22030 1
   22944    22027    22028 1
   22945    22028    22029 1
   22946    22028    22075 1
   22947    22029    22030 1
   22948    22029    22031 1
   22949    22031    22032 1
   22950    22031    22036 1
   22951    22032    22033 1
   22952    22032    22076 1
   22953    22033    22034 1
   22954    22034    22035 1
   22955    22035    22036 1
   22956    22035    22039 1
   22957    22036    22037 1
   22958    22037    22038 1
   22959    22038    22039 1
   22960    22040    22041 1
   22961    22041    22042 1
   22962    22041    22155 1
   22963    22042    22077 1
   22964    22043    22044 1
   22965    22043    22078 1
   22966    22043    22079 1
   22967    22044    22045 1
   22968    22044    22051 1
   22969    22044    22080 1
   22970    22045    22046 1
   22971    22045    22081 1
   22972    22045    22082 1
   22973    22046    22047 1
   22974    22046    22083 1
   22975    22046    22084 1
   22976    22047    22048 1
   22977    22047    22085 1
   22978    22047    22086 1
   22979    22048    22049 1
   22980    22048    22087 1
   22981    22048    22088 1
   22982    22049    22050 1
   22983    22049    22089 1
   22984    22049    22090 1
   22985    22050    22091 1
   22986    22050    22092 1
   22987    22050    22093 1
   22988    22051    22052 1
   22989    22051    22094 1
   22990    22051    22095 1
   22991    22052    22053 1
   22992    22052    22096 1
   22993    22052    22097 1
   22994    22053    22054 1
   22995    22053    22098 1
   22996    22053    22099 1
   22997    22054    22055 1
   22998    22054    22100 1
   22999    22054    22101 1
   23000    22055    22056 1
   23001    22055    22102 1
   23002    22055    22103 1
   23003    22056    22057 1
   23004    22056    22104 1
   23005    22056    22105 1
   23006    22057    22058 1
   23007    22057    22106 1
   23008    22057    22107 1
   23009    22058    22108 1
   23010    22058    22109 1
   23011    22058    22110 1
   23012    22059    22060 1
   23013    22059    22111 1
   23014    22059    22112 1
   23015    22060    22061 1
   23016    22060    22067 1
   23017    22060    22113 1
   23018    22061    22062 1
   23019    22061    22114 1
   23020    22061    22115 1
   23021    22062    22063 1
   23022    22062    22116 1
   23023    22062    22117 1
   23024    22063    22064 1
   23025    22063    22118 1
   23026    22063    22119 1
   23027    22064    22065 1
   23028    22064    22120 1
   23029    22064    22121 1
   23030    22065    22066 1
   23031    22065    22122 1
   23032    22065    22123 1
   23033    22066    22124 1
   23034    22066    22125 1
   23035    22066    22126 1
   23036    22067    22068 1
   23037    22067    22127 1
   23038    22067    22128 1
   23039    22068    22069 1
   23040    22068    22129 1
   23041    22068    22130 1
   23042    22069    22070 1
   23043    22069    22131 1
   23044    22069    22132 1
   23045    22070    22071 1
   23046    22070    22133 1
   23047    22070    22134 1
   23048    22071    22072 1
   23049    22071    22135 1
   23050    22071    22136 1
   23051    22072    22073 1
   23052    22072    22137 1
   23053    22072    22138 1
   23054    22073    22074 1
   23055    22073    22139 1
   23056    22073    22140 1
   23057    22074    22141 1
   23058    22074    22142 1
   23059    22074    22143 1
   23060    22144    22145 1
   23061    22144    22164 1
   23062    22144    22180 1
   23063    22144    22148 1
   23064    22145    22146 1
   23065    22145    22163 1
   23066    22146    22147 1
   23067    22146    22161 1
   23068    22147    22148 1
   23069    22147    22151 1
   23070    22148    22149 1
   23071    22149    22150 1
   23072    22149    22196 1
   23073    22150    22151 1
   23074    22150    22152 1
   23075    22152    22153 1
   23076    22152    22157 1
   23077    22153    22154 1
   23078    22153    22197 1
   23079    22154    22155 1
   23080    22155    22156 1
   23081    22156    22157 1
   23082    22156    22160 1
   23083    22157    22158 1
   23084    22158    22159 1
   23085    22159    22160 1
   23086    22161    22162 1
   23087    22162    22163 1
   23088    22162    22276 1
   23089    22163    22198 1
   23090    22164    22165 1
   23091    22164    22199 1
   23092    22164    22200 1
   23093    22165    22166 1
   23094    22165    22172 1
   23095    22165    22201 1
   23096    22166    22167 1
   23097    22166    22202 1
   23098    22166    22203 1
   23099    22167    22168 1
   23100    22167    22204 1
   23101    22167    22205 1
   23102    22168    22169 1
   23103    22168    22206 1
   23104    22168    22207 1
   23105    22169    22170 1
   23106    22169    22208 1
   23107    22169    22209 1
   23108    22170    22171 1
   23109    22170    22210 1
   23110    22170    22211 1
   23111    22171    22212 1
   23112    22171    22213 1
   23113    22171    22214 1
   23114    22172    22173 1
   23115    22172    22215 1
   23116    22172    22216 1
   23117    22173    22174 1
   23118    22173    22217 1
   23119    22173    22218 1
   23120    22174    22175 1
   23121    22174    22219 1
   23122    22174    22220 1
   23123    22175    22176 1
   23124    22175    22221 1
   23125    22175    22222 1
   23126    22176    22177 1
   23127    22176    22223 1
   23128    22176    22224 1
   23129    22177    22178 1
   23130    22177    22225 1
   23131    22177    22226 1
   23132    22178    22179 1
   23133    22178    22227 1
   23134    22178    22228 1
   23135    22179    22229 1
   23136    22179    22230 1
   23137    22179    22231 1
   23138    22180    22181 1
   23139    22180    22232 1
   23140    22180    22233 1
   23141    22181    22182 1
   23142    22181    22188 1
   23143    22181    22234 1
   23144    22182    22183 1
   23145    22182    22235 1
   23146    22182    22236 1
   23147    22183    22184 1
   23148    22183    22237 1
   23149    22183    22238 1
   23150    22184    22185 1
   23151    22184    22239 1
   23152    22184    22240 1
   23153    22185    22186 1
   23154    22185    22241 1
   23155    22185    22242 1
   23156    22186    22187 1
   23157    22186    22243 1
   23158    22186    22244 1
   23159    22187    22245 1
   23160    22187    22246 1
   23161    22187    22247 1
   23162    22188    22189 1
   23163    22188    22248 1
   23164    22188    22249 1
   23165    22189    22190 1
   23166    22189    22250 1
   23167    22189    22251 1
   23168    22190    22191 1
   23169    22190    22252 1
   23170    22190    22253 1
   23171    22191    22192 1
   23172    22191    22254 1
   23173    22191    22255 1
   23174    22192    22193 1
   23175    22192    22256 1
   23176    22192    22257 1
   23177    22193    22194 1
   23178    22193    22258 1
   23179    22193    22259 1
   23180    22194    22195 1
   23181    22194    22260 1
   23182    22194    22261 1
   23183    22195    22262 1
   23184    22195    22263 1
   23185    22195    22264 1
   23186    22265    22266 1
   23187    22265    22285 1
   23188    22265    22301 1
   23189    22265    22269 1
   23190    22266    22267 1
   23191    22266    22284 1
   23192    22267    22268 1
   23193    22267    22282 1
   23194    22268    22269 1
   23195    22268    22272 1
   23196    22269    22270 1
   23197    22270    22271 1
   23198    22270    22317 1
   23199    22271    22272 1
   23200    22271    22273 1
   23201    22273    22274 1
   23202    22273    22278 1
   23203    22274    22275 1
   23204    22274    22318 1
   23205    22275    22276 1
   23206    22276    22277 1
   23207    22277    22278 1
   23208    22277    22281 1
   23209    22278    22279 1
   23210    22279    22280 1
   23211    22280    22281 1
   23212    22282    22283 1
   23213    22283    22284 1
   23214    22283    22397 1
   23215    22284    22319 1
   23216    22285    22286 1
   23217    22285    22320 1
   23218    22285    22321 1
   23219    22286    22287 1
   23220    22286    22293 1
   23221    22286    22322 1
   23222    22287    22288 1
   23223    22287    22323 1
   23224    22287    22324 1
   23225    22288    22289 1
   23226    22288    22325 1
   23227    22288    22326 1
   23228    22289    22290 1
   23229    22289    22327 1
   23230    22289    22328 1
   23231    22290    22291 1
   23232    22290    22329 1
   23233    22290    22330 1
   23234    22291    22292 1
   23235    22291    22331 1
   23236    22291    22332 1
   23237    22292    22333 1
   23238    22292    22334 1
   23239    22292    22335 1
   23240    22293    22294 1
   23241    22293    22336 1
   23242    22293    22337 1
   23243    22294    22295 1
   23244    22294    22338 1
   23245    22294    22339 1
   23246    22295    22296 1
   23247    22295    22340 1
   23248    22295    22341 1
   23249    22296    22297 1
   23250    22296    22342 1
   23251    22296    22343 1
   23252    22297    22298 1
   23253    22297    22344 1
   23254    22297    22345 1
   23255    22298    22299 1
   23256    22298    22346 1
   23257    22298    22347 1
   23258    22299    22300 1
   23259    22299    22348 1
   23260    22299    22349 1
   23261    22300    22350 1
   23262    22300    22351 1
   23263    22300    22352 1
   23264    22301    22302 1
   23265    22301    22353 1
   23266    22301    22354 1
   23267    22302    22303 1
   23268    22302    22309 1
   23269    22302    22355 1
   23270    22303    22304 1
   23271    22303    22356 1
   23272    22303    22357 1
   23273    22304    22305 1
   23274    22304    22358 1
   23275    22304    22359 1
   23276    22305    22306 1
   23277    22305    22360 1
   23278    22305    22361 1
   23279    22306    22307 1
   23280    22306    22362 1
   23281    22306    22363 1
   23282    22307    22308 1
   23283    22307    22364 1
   23284    22307    22365 1
   23285    22308    22366 1
   23286    22308    22367 1
   23287    22308    22368 1
   23288    22309    22310 1
   23289    22309    22369 1
   23290    22309    22370 1
   23291    22310    22311 1
   23292    22310    22371 1
   23293    22310    22372 1
   23294    22311    22312 1
   23295    22311    22373 1
   23296    22311    22374 1
   23297    22312    22313 1
   23298    22312    22375 1
   23299    22312    22376 1
   23300    22313    22314 1
   23301    22313    22377 1
   23302    22313    22378 1
   23303    22314    22315 1
   23304    22314    22379 1
   23305    22314    22380 1
   23306    22315    22316 1
   23307    22315    22381 1
   23308    22315    22382 1
   23309    22316    22383 1
   23310    22316    22384 1
   23311    22316    22385 1
   23312    22386    22387 1
   23313    22386    22406 1
   23314    22386    22422 1
   23315    22386    22390 1
   23316    22387    22388 1
   23317    22387    22405 1
   23318    22388    22389 1
   23319    22388    22403 1
   23320    22389    22390 1
   23321    22389    22393 1
   23322    22390    22391 1
   23323    22391    22392 1
   23324    22391    22438 1
   23325    22392    22393 1
   23326    22392    22394 1
   23327    22394    22395 1
   23328    22394    22399 1
   23329    22395    22396 1
   23330    22395    22439 1
   23331    22396    22397 1
   23332    22397    22398 1
   23333    22398    22399 1
   23334    22398    22402 1
   23335    22399    22400 1
   23336    22400    22401 1
   23337    22401    22402 1
   23338    22403    22404 1
   23339    22404    22405 1
   23340    22404    22518 1
   23341    22405    22440 1
   23342    22406    22407 1
   23343    22406    22441 1
   23344    22406    22442 1
   23345    22407    22408 1
   23346    22407    22414 1
   23347    22407    22443 1
   23348    22408    22409 1
   23349    22408    22444 1
   23350    22408    22445 1
   23351    22409    22410 1
   23352    22409    22446 1
   23353    22409    22447 1
   23354    22410    22411 1
   23355    22410    22448 1
   23356    22410    22449 1
   23357    22411    22412 1
   23358    22411    22450 1
   23359    22411    22451 1
   23360    22412    22413 1
   23361    22412    22452 1
   23362    22412    22453 1
   23363    22413    22454 1
   23364    22413    22455 1
   23365    22413    22456 1
   23366    22414    22415 1
   23367    22414    22457 1
   23368    22414    22458 1
   23369    22415    22416 1
   23370    22415    22459 1
   23371    22415    22460 1
   23372    22416    22417 1
   23373    22416    22461 1
   23374    22416    22462 1
   23375    22417    22418 1
   23376    22417    22463 1
   23377    22417    22464 1
   23378    22418    22419 1
   23379    22418    22465 1
   23380    22418    22466 1
   23381    22419    22420 1
   23382    22419    22467 1
   23383    22419    22468 1
   23384    22420    22421 1
   23385    22420    22469 1
   23386    22420    22470 1
   23387    22421    22471 1
   23388    22421    22472 1
   23389    22421    22473 1
   23390    22422    22423 1
   23391    22422    22474 1
   23392    22422    22475 1
   23393    22423    22424 1
   23394    22423    22430 1
   23395    22423    22476 1
   23396    22424    22425 1
   23397    22424    22477 1
   23398    22424    22478 1
   23399    22425    22426 1
   23400    22425    22479 1
   23401    22425    22480 1
   23402    22426    22427 1
   23403    22426    22481 1
   23404    22426    22482 1
   23405    22427    22428 1
   23406    22427    22483 1
   23407    22427    22484 1
   23408    22428    22429 1
   23409    22428    22485 1
   23410    22428    22486 1
   23411    22429    22487 1
   23412    22429    22488 1
   23413    22429    22489 1
   23414    22430    22431 1
   23415    22430    22490 1
   23416    22430    22491 1
   23417    22431    22432 1
   23418    22431    22492 1
   23419    22431    22493 1
   23420    22432    22433 1
   23421    22432    22494 1
   23422    22432    22495 1
   23423    22433    22434 1
   23424    22433    22496 1
   23425    22433    22497 1
   23426    22434    22435 1
   23427    22434    22498 1
   23428    22434    22499 1
   23429    22435    22436 1
   23430    22435    22500 1
   23431    22435    22501 1
   23432    22436    22437 1
   23433    22436    22502 1
   23434    22436    22503 1
   23435    22437    22504 1
   23436    22437    22505 1
   23437    22437    22506 1
   23438    22507    22508 1
   23439    22507    22527 1
   23440    22507    22543 1
   23441    22507    22511 1
   23442    22508    22509 1
   23443    22508    22526 1
   23444    22509    22510 1
   23445    22509    22524 1
   23446    22510    22511 1
   23447    22510    22514 1
   23448    22511    22512 1
   23449    22512    22513 1
   23450    22512    22559 1
   23451    22513    22514 1
   23452    22513    22515 1
   23453    22515    22516 1
   23454    22515    22520 1
   23455    22516    22517 1
   23456    22516    22560 1
   23457    22517    22518 1
   23458    22518    22519 1
   23459    22519    22520 1
   23460    22519    22523 1
   23461    22520    22521 1
   23462    22521    22522 1
   23463    22522    22523 1
   23464    22524    22525 1
   23465    22525    22526 1
   23466    22525    22639 1
   23467    22526    22561 1
   23468    22527    22528 1
   23469    22527    22562 1
   23470    22527    22563 1
   23471    22528    22529 1
   23472    22528    22535 1
   23473    22528    22564 1
   23474    22529    22530 1
   23475    22529    22565 1
   23476    22529    22566 1
   23477    22530    22531 1
   23478    22530    22567 1
   23479    22530    22568 1
   23480    22531    22532 1
   23481    22531    22569 1
   23482    22531    22570 1
   23483    22532    22533 1
   23484    22532    22571 1
   23485    22532    22572 1
   23486    22533    22534 1
   23487    22533    22573 1
   23488    22533    22574 1
   23489    22534    22575 1
   23490    22534    22576 1
   23491    22534    22577 1
   23492    22535    22536 1
   23493    22535    22578 1
   23494    22535    22579 1
   23495    22536    22537 1
   23496    22536    22580 1
   23497    22536    22581 1
   23498    22537    22538 1
   23499    22537    22582 1
   23500    22537    22583 1
   23501    22538    22539 1
   23502    22538    22584 1
   23503    22538    22585 1
   23504    22539    22540 1
   23505    22539    22586 1
   23506    22539    22587 1
   23507    22540    22541 1
   23508    22540    22588 1
   23509    22540    22589 1
   23510    22541    22542 1
   23511    22541    22590 1
   23512    22541    22591 1
   23513    22542    22592 1
   23514    22542    22593 1
   23515    22542    22594 1
   23516    22543    22544 1
   23517    22543    22595 1
   23518    22543    22596 1
   23519    22544    22545 1
   23520    22544    22551 1
   23521    22544    22597 1
   23522    22545    22546 1
   23523    22545    22598 1
   23524    22545    22599 1
   23525    22546    22547 1
   23526    22546    22600 1
   23527    22546    22601 1
   23528    22547    22548 1
   23529    22547    22602 1
   23530    22547    22603 1
   23531    22548    22549 1
   23532    22548    22604 1
   23533    22548    22605 1
   23534    22549    22550 1
   23535    22549    22606 1
   23536    22549    22607 1
   23537    22550    22608 1
   23538    22550    22609 1
   23539    22550    22610 1
   23540    22551    22552 1
   23541    22551    22611 1
   23542    22551    22612 1
   23543    22552    22553 1
   23544    22552    22613 1
   23545    22552    22614 1
   23546    22553    22554 1
   23547    22553    22615 1
   23548    22553    22616 1
   23549    22554    22555 1
   23550    22554    22617 1
   23551    22554    22618 1
   23552    22555    22556 1
   23553    22555    22619 1
   23554    22555    22620 1
   23555    22556    22557 1
   23556    22556    22621 1
   23557    22556    22622 1
   23558    22557    22558 1
   23559    22557    22623 1
   23560    22557    22624 1
   23561    22558    22625 1
   23562    22558    22626 1
   23563    22558    22627 1
   23564    22628    22629 1
   23565    22628    22648 1
   23566    22628    22664 1
   23567    22628    22632 1
   23568    22629    22630 1
   23569    22629    22647 1
   23570    22630    22631 1
   23571    22630    22645 1
   23572    22631    22632 1
   23573    22631    22635 1
   23574    22632    22633 1
   23575    22633    22634 1
   23576    22633    22680 1
   23577    22634    22635 1
   23578    22634    22636 1
   23579    22636    22637 1
   23580    22636    22641 1
   23581    22637    22638 1
   23582    22637    22681 1
   23583    22638    22639 1
   23584    22639    22640 1
   23585    22640    22641 1
   23586    22640    22644 1
   23587    22641    22642 1
   23588    22642    22643 1
   23589    22643    22644 1
   23590    22645    22646 1
   23591    22646    22647 1
   23592    22646    22760 1
   23593    22647    22682 1
   23594    22648    22649 1
   23595    22648    22683 1
   23596    22648    22684 1
   23597    22649    22650 1
   23598    22649    22656 1
   23599    22649    22685 1
   23600    22650    22651 1
   23601    22650    22686 1
   23602    22650    22687 1
   23603    22651    22652 1
   23604    22651    22688 1
   23605    22651    22689 1
   23606    22652    22653 1
   23607    22652    22690 1
   23608    22652    22691 1
   23609    22653    22654 1
   23610    22653    22692 1
   23611    22653    22693 1
   23612    22654    22655 1
   23613    22654    22694 1
   23614    22654    22695 1
   23615    22655    22696 1
   23616    22655    22697 1
   23617    22655    22698 1
   23618    22656    22657 1
   23619    22656    22699 1
   23620    22656    22700 1
   23621    22657    22658 1
   23622    22657    22701 1
   23623    22657    22702 1
   23624    22658    22659 1
   23625    22658    22703 1
   23626    22658    22704 1
   23627    22659    22660 1
   23628    22659    22705 1
   23629    22659    22706 1
   23630    22660    22661 1
   23631    22660    22707 1
   23632    22660    22708 1
   23633    22661    22662 1
   23634    22661    22709 1
   23635    22661    22710 1
   23636    22662    22663 1
   23637    22662    22711 1
   23638    22662    22712 1
   23639    22663    22713 1
   23640    22663    22714 1
   23641    22663    22715 1
   23642    22664    22665 1
   23643    22664    22716 1
   23644    22664    22717 1
   23645    22665    22666 1
   23646    22665    22672 1
   23647    22665    22718 1
   23648    22666    22667 1
   23649    22666    22719 1
   23650    22666    22720 1
   23651    22667    22668 1
   23652    22667    22721 1
   23653    22667    22722 1
   23654    22668    22669 1
   23655    22668    22723 1
   23656    22668    22724 1
   23657    22669    22670 1
   23658    22669    22725 1
   23659    22669    22726 1
   23660    22670    22671 1
   23661    22670    22727 1
   23662    22670    22728 1
   23663    22671    22729 1
   23664    22671    22730 1
   23665    22671    22731 1
   23666    22672    22673 1
   23667    22672    22732 1
   23668    22672    22733 1
   23669    22673    22674 1
   23670    22673    22734 1
   23671    22673    22735 1
   23672    22674    22675 1
   23673    22674    22736 1
   23674    22674    22737 1
   23675    22675    22676 1
   23676    22675    22738 1
   23677    22675    22739 1
   23678    22676    22677 1
   23679    22676    22740 1
   23680    22676    22741 1
   23681    22677    22678 1
   23682    22677    22742 1
   23683    22677    22743 1
   23684    22678    22679 1
   23685    22678    22744 1
   23686    22678    22745 1
   23687    22679    22746 1
   23688    22679    22747 1
   23689    22679    22748 1
   23690    22749    22750 1
   23691    22749    22769 1
   23692    22749    22785 1
   23693    22749    22753 1
   23694    22750    22751 1
   23695    22750    22768 1
   23696    22751    22752 1
   23697    22751    22766 1
   23698    22752    22753 1
   23699    22752    22756 1
   23700    22753    22754 1
   23701    22754    22755 1
   23702    22754    22801 1
   23703    22755    22756 1
   23704    22755    22757 1
   23705    22757    22758 1
   23706    22757    22762 1
   23707    22758    22759 1
   23708    22758    22802 1
   23709    22759    22760 1
   23710    22760    22761 1
   23711    22761    22762 1
   23712    22761    22765 1
   23713    22762    22763 1
   23714    22763    22764 1
   23715    22764    22765 1
   23716    22766    22767 1
   23717    22767    22768 1
   23718    22767    22881 1
   23719    22768    22803 1
   23720    22769    22770 1
   23721    22769    22804 1
   23722    22769    22805 1
   23723    22770    22771 1
   23724    22770    22777 1
   23725    22770    22806 1
   23726    22771    22772 1
   23727    22771    22807 1
   23728    22771    22808 1
   23729    22772    22773 1
   23730    22772    22809 1
   23731    22772    22810 1
   23732    22773    22774 1
   23733    22773    22811 1
   23734    22773    22812 1
   23735    22774    22775 1
   23736    22774    22813 1
   23737    22774    22814 1
   23738    22775    22776 1
   23739    22775    22815 1
   23740    22775    22816 1
   23741    22776    22817 1
   23742    22776    22818 1
   23743    22776    22819 1
   23744    22777    22778 1
   23745    22777    22820 1
   23746    22777    22821 1
   23747    22778    22779 1
   23748    22778    22822 1
   23749    22778    22823 1
   23750    22779    22780 1
   23751    22779    22824 1
   23752    22779    22825 1
   23753    22780    22781 1
   23754    22780    22826 1
   23755    22780    22827 1
   23756    22781    22782 1
   23757    22781    22828 1
   23758    22781    22829 1
   23759    22782    22783 1
   23760    22782    22830 1
   23761    22782    22831 1
   23762    22783    22784 1
   23763    22783    22832 1
   23764    22783    22833 1
   23765    22784    22834 1
   23766    22784    22835 1
   23767    22784    22836 1
   23768    22785    22786 1
   23769    22785    22837 1
   23770    22785    22838 1
   23771    22786    22787 1
   23772    22786    22793 1
   23773    22786    22839 1
   23774    22787    22788 1
   23775    22787    22840 1
   23776    22787    22841 1
   23777    22788    22789 1
   23778    22788    22842 1
   23779    22788    22843 1
   23780    22789    22790 1
   23781    22789    22844 1
   23782    22789    22845 1
   23783    22790    22791 1
   23784    22790    22846 1
   23785    22790    22847 1
   23786    22791    22792 1
   23787    22791    22848 1
   23788    22791    22849 1
   23789    22792    22850 1
   23790    22792    22851 1
   23791    22792    22852 1
   23792    22793    22794 1
   23793    22793    22853 1
   23794    22793    22854 1
   23795    22794    22795 1
   23796    22794    22855 1
   23797    22794    22856 1
   23798    22795    22796 1
   23799    22795    22857 1
   23800    22795    22858 1
   23801    22796    22797 1
   23802    22796    22859 1
   23803    22796    22860 1
   23804    22797    22798 1
   23805    22797    22861 1
   23806    22797    22862 1
   23807    22798    22799 1
   23808    22798    22863 1
   23809    22798    22864 1
   23810    22799    22800 1
   23811    22799    22865 1
   23812    22799    22866 1
   23813    22800    22867 1
   23814    22800    22868 1
   23815    22800    22869 1
   23816    22870    22871 1
   23817    22870    22890 1
   23818    22870    22906 1
   23819    22870    22874 1
   23820    22871    22872 1
   23821    22871    22889 1
   23822    22872    22873 1
   23823    22872    22887 1
   23824    22873    22874 1
   23825    22873    22877 1
   23826    22874    22875 1
   23827    22875    22876 1
   23828    22875    22922 1
   23829    22876    22877 1
   23830    22876    22878 1
   23831    22878    22879 1
   23832    22878    22883 1
   23833    22879    22880 1
   23834    22879    22923 1
   23835    22880    22881 1
   23836    22881    22882 1
   23837    22882    22883 1
   23838    22882    22886 1
   23839    22883    22884 1
   23840    22884    22885 1
   23841    22885    22886 1
   23842    22887    22888 1
   23843    22888    22889 1
   23844    22888    23002 1
   23845    22889    22924 1
   23846    22890    22891 1
   23847    22890    22925 1
   23848    22890    22926 1
   23849    22891    22892 1
   23850    22891    22898 1
   23851    22891    22927 1
   23852    22892    22893 1
   23853    22892    22928 1
   23854    22892    22929 1
   23855    22893    22894 1
   23856    22893    22930 1
   23857    22893    22931 1
   23858    22894    22895 1
   23859    22894    22932 1
   23860    22894    22933 1
   23861    22895    22896 1
   23862    22895    22934 1
   23863    22895    22935 1
   23864    22896    22897 1
   23865    22896    22936 1
   23866    22896    22937 1
   23867    22897    22938 1
   23868    22897    22939 1
   23869    22897    22940 1
   23870    22898    22899 1
   23871    22898    22941 1
   23872    22898    22942 1
   23873    22899    22900 1
   23874    22899    22943 1
   23875    22899    22944 1
   23876    22900    22901 1
   23877    22900    22945 1
   23878    22900    22946 1
   23879    22901    22902 1
   23880    22901    22947 1
   23881    22901    22948 1
   23882    22902    22903 1
   23883    22902    22949 1
   23884    22902    22950 1
   23885    22903    22904 1
   23886    22903    22951 1
   23887    22903    22952 1
   23888    22904    22905 1
   23889    22904    22953 1
   23890    22904    22954 1
   23891    22905    22955 1
   23892    22905    22956 1
   23893    22905    22957 1
   23894    22906    22907 1
   23895    22906    22958 1
   23896    22906    22959 1
   23897    22907    22908 1
   23898    22907    22914 1
   23899    22907    22960 1
   23900    22908    22909 1
   23901    22908    22961 1
   23902    22908    22962 1
   23903    22909    22910 1
   23904    22909    22963 1
   23905    22909    22964 1
   23906    22910    22911 1
   23907    22910    22965 1
   23908    22910    22966 1
   23909    22911    22912 1
   23910    22911    22967 1
   23911    22911    22968 1
   23912    22912    22913 1
   23913    22912    22969 1
   23914    22912    22970 1
   23915    22913    22971 1
   23916    22913    22972 1
   23917    22913    22973 1
   23918    22914    22915 1
   23919    22914    22974 1
   23920    22914    22975 1
   23921    22915    22916 1
   23922    22915    22976 1
   23923    22915    22977 1
   23924    22916    22917 1
   23925    22916    22978 1
   23926    22916    22979 1
   23927    22917    22918 1
   23928    22917    22980 1
   23929    22917    22981 1
   23930    22918    22919 1
   23931    22918    22982 1
   23932    22918    22983 1
   23933    22919    22920 1
   23934    22919    22984 1
   23935    22919    22985 1
   23936    22920    22921 1
   23937    22920    22986 1
   23938    22920    22987 1
   23939    22921    22988 1
   23940    22921    22989 1
   23941    22921    22990 1
   23942    22991    22992 1
   23943    22991    23011 1
   23944    22991    23027 1
   23945    22991    22995 1
   23946    22992    22993 1
   23947    22992    23010 1
   23948    22993    22994 1
   23949    22993    23008 1
   23950    22994    22995 1
   23951    22994    22998 1
   23952    22995    22996 1
   23953    22996    22997 1
   23954    22996    23043 1
   23955    22997    22998 1
   23956    22997    22999 1
   23957    22999    23000 1
   23958    22999    23004 1
   23959    23000    23001 1
   23960    23000    23044 1
   23961    23001    23002 1
   23962    23002    23003 1
   23963    23003    23004 1
   23964    23003    23007 1
   23965    23004    23005 1
   23966    23005    23006 1
   23967    23006    23007 1
   23968    23008    23009 1
   23969    23009    23010 1
   23970    23009    23123 1
   23971    23010    23045 1
   23972    23011    23012 1
   23973    23011    23046 1
   23974    23011    23047 1
   23975    23012    23013 1
   23976    23012    23019 1
   23977    23012    23048 1
   23978    23013    23014 1
   23979    23013    23049 1
   23980    23013    23050 1
   23981    23014    23015 1
   23982    23014    23051 1
   23983    23014    23052 1
   23984    23015    23016 1
   23985    23015    23053 1
   23986    23015    23054 1
   23987    23016    23017 1
   23988    23016    23055 1
   23989    23016    23056 1
   23990    23017    23018 1
   23991    23017    23057 1
   23992    23017    23058 1
   23993    23018    23059 1
   23994    23018    23060 1
   23995    23018    23061 1
   23996    23019    23020 1
   23997    23019    23062 1
   23998    23019    23063 1
   23999    23020    23021 1
   24000    23020    23064 1
   24001    23020    23065 1
   24002    23021    23022 1
   24003    23021    23066 1
   24004    23021    23067 1
   24005    23022    23023 1
   24006    23022    23068 1
   24007    23022    23069 1
   24008    23023    23024 1
   24009    23023    23070 1
   24010    23023    23071 1
   24011    23024    23025 1
   24012    23024    23072 1
   24013    23024    23073 1
   24014    23025    23026 1
   24015    23025    23074 1
   24016    23025    23075 1
   24017    23026    23076 1
   24018    23026    23077 1
   24019    23026    23078 1
   24020    23027    23028 1
   24021    23027    23079 1
   24022    23027    23080 1
   24023    23028    23029 1
   24024    23028    23035 1
   24025    23028    23081 1
   24026    23029    23030 1
   24027    23029    23082 1
   24028    23029    23083 1
   24029    23030    23031 1
   24030    23030    23084 1
   24031    23030    23085 1
   24032    23031    23032 1
   24033    23031    23086 1
   24034    23031    23087 1
   24035    23032    23033 1
   24036    23032    23088 1
   24037    23032    23089 1
   24038    23033    23034 1
   24039    23033    23090 1
   24040    23033    23091 1
   24041    23034    23092 1
   24042    23034    23093 1
   24043    23034    23094 1
   24044    23035    23036 1
   24045    23035    23095 1
   24046    23035    23096 1
   24047    23036    23037 1
   24048    23036    23097 1
   24049    23036    23098 1
   24050    23037    23038 1
   24051    23037    23099 1
   24052    23037    23100 1
   24053    23038    23039 1
   24054    23038    23101 1
   24055    23038    23102 1
   24056    23039    23040 1
   24057    23039    23103 1
   24058    23039    23104 1
   24059    23040    23041 1
   24060    23040    23105 1
   24061    23040    23106 1
   24062    23041    23042 1
   24063    23041    23107 1
   24064    23041    23108 1
   24065    23042    23109 1
   24066    23042    23110 1
   24067    23042    23111 1
   24068    23112    23113 1
   24069    23112    23132 1
   24070    23112    23148 1
   24071    23112    23116 1
   24072    23113    23114 1
   24073    23113    23131 1
   24074    23114    23115 1
   24075    23114    23129 1
   24076    23115    23116 1
   24077    23115    23119 1
   24078    23116    23117 1
   24079    23117    23118 1
   24080    23117    23164 1
   24081    23118    23119 1
   24082    23118    23120 1
   24083    23120    23121 1
   24084    23120    23125 1
   24085    23121    23122 1
   24086    23121    23165 1
   24087    23122    23123 1
   24088    23123    23124 1
   24089    23124    23125 1
   24090    23124    23128 1
   24091    23125    23126 1
   24092    23126    23127 1
   24093    23127    23128 1
   24094    23129    23130 1
   24095    23130    23131 1
   24096    23130    23244 1
   24097    23131    23166 1
   24098    23132    23133 1
   24099    23132    23167 1
   24100    23132    23168 1
   24101    23133    23134 1
   24102    23133    23140 1
   24103    23133    23169 1
   24104    23134    23135 1
   24105    23134    23170 1
   24106    23134    23171 1
   24107    23135    23136 1
   24108    23135    23172 1
   24109    23135    23173 1
   24110    23136    23137 1
   24111    23136    23174 1
   24112    23136    23175 1
   24113    23137    23138 1
   24114    23137    23176 1
   24115    23137    23177 1
   24116    23138    23139 1
   24117    23138    23178 1
   24118    23138    23179 1
   24119    23139    23180 1
   24120    23139    23181 1
   24121    23139    23182 1
   24122    23140    23141 1
   24123    23140    23183 1
   24124    23140    23184 1
   24125    23141    23142 1
   24126    23141    23185 1
   24127    23141    23186 1
   24128    23142    23143 1
   24129    23142    23187 1
   24130    23142    23188 1
   24131    23143    23144 1
   24132    23143    23189 1
   24133    23143    23190 1
   24134    23144    23145 1
   24135    23144    23191 1
   24136    23144    23192 1
   24137    23145    23146 1
   24138    23145    23193 1
   24139    23145    23194 1
   24140    23146    23147 1
   24141    23146    23195 1
   24142    23146    23196 1
   24143    23147    23197 1
   24144    23147    23198 1
   24145    23147    23199 1
   24146    23148    23149 1
   24147    23148    23200 1
   24148    23148    23201 1
   24149    23149    23150 1
   24150    23149    23156 1
   24151    23149    23202 1
   24152    23150    23151 1
   24153    23150    23203 1
   24154    23150    23204 1
   24155    23151    23152 1
   24156    23151    23205 1
   24157    23151    23206 1
   24158    23152    23153 1
   24159    23152    23207 1
   24160    23152    23208 1
   24161    23153    23154 1
   24162    23153    23209 1
   24163    23153    23210 1
   24164    23154    23155 1
   24165    23154    23211 1
   24166    23154    23212 1
   24167    23155    23213 1
   24168    23155    23214 1
   24169    23155    23215 1
   24170    23156    23157 1
   24171    23156    23216 1
   24172    23156    23217 1
   24173    23157    23158 1
   24174    23157    23218 1
   24175    23157    23219 1
   24176    23158    23159 1
   24177    23158    23220 1
   24178    23158    23221 1
   24179    23159    23160 1
   24180    23159    23222 1
   24181    23159    23223 1
   24182    23160    23161 1
   24183    23160    23224 1
   24184    23160    23225 1
   24185    23161    23162 1
   24186    23161    23226 1
   24187    23161    23227 1
   24188    23162    23163 1
   24189    23162    23228 1
   24190    23162    23229 1
   24191    23163    23230 1
   24192    23163    23231 1
   24193    23163    23232 1
   24194    23233    23234 1
   24195    23233    23253 1
   24196    23233    23269 1
   24197    23233    23237 1
   24198    23234    23235 1
   24199    23234    23252 1
   24200    23235    23236 1
   24201    23235    23250 1
   24202    23236    23237 1
   24203    23236    23240 1
   24204    23237    23238 1
   24205    23238    23239 1
   24206    23238    23285 1
   24207    23239    23240 1
   24208    23239    23241 1
   24209    23241    23242 1
   24210    23241    23246 1
   24211    23242    23243 1
   24212    23242    23286 1
   24213    23243    23244 1
   24214    23244    23245 1
   24215    23245    23246 1
   24216    23245    23249 1
   24217    23246    23247 1
   24218    23247    23248 1
   24219    23248    23249 1
   24220    23250    23251 1
   24221    23251    23252 1
   24222    23251    23365 1
   24223    23252    23287 1
   24224    23253    23254 1
   24225    23253    23288 1
   24226    23253    23289 1
   24227    23254    23255 1
   24228    23254    23261 1
   24229    23254    23290 1
   24230    23255    23256 1
   24231    23255    23291 1
   24232    23255    23292 1
   24233    23256    23257 1
   24234    23256    23293 1
   24235    23256    23294 1
   24236    23257    23258 1
   24237    23257    23295 1
   24238    23257    23296 1
   24239    23258    23259 1
   24240    23258    23297 1
   24241    23258    23298 1
   24242    23259    23260 1
   24243    23259    23299 1
   24244    23259    23300 1
   24245    23260    23301 1
   24246    23260    23302 1
   24247    23260    23303 1
   24248    23261    23262 1
   24249    23261    23304 1
   24250    23261    23305 1
   24251    23262    23263 1
   24252    23262    23306 1
   24253    23262    23307 1
   24254    23263    23264 1
   24255    23263    23308 1
   24256    23263    23309 1
   24257    23264    23265 1
   24258    23264    23310 1
   24259    23264    23311 1
   24260    23265    23266 1
   24261    23265    23312 1
   24262    23265    23313 1
   24263    23266    23267 1
   24264    23266    23314 1
   24265    23266    23315 1
   24266    23267    23268 1
   24267    23267    23316 1
   24268    23267    23317 1
   24269    23268    23318 1
   24270    23268    23319 1
   24271    23268    23320 1
   24272    23269    23270 1
   24273    23269    23321 1
   24274    23269    23322 1
   24275    23270    23271 1
   24276    23270    23277 1
   24277    23270    23323 1
   24278    23271    23272 1
   24279    23271    23324 1
   24280    23271    23325 1
   24281    23272    23273 1
   24282    23272    23326 1
   24283    23272    23327 1
   24284    23273    23274 1
   24285    23273    23328 1
   24286    23273    23329 1
   24287    23274    23275 1
   24288    23274    23330 1
   24289    23274    23331 1
   24290    23275    23276 1
   24291    23275    23332 1
   24292    23275    23333 1
   24293    23276    23334 1
   24294    23276    23335 1
   24295    23276    23336 1
   24296    23277    23278 1
   24297    23277    23337 1
   24298    23277    23338 1
   24299    23278    23279 1
   24300    23278    23339 1
   24301    23278    23340 1
   24302    23279    23280 1
   24303    23279    23341 1
   24304    23279    23342 1
   24305    23280    23281 1
   24306    23280    23343 1
   24307    23280    23344 1
   24308    23281    23282 1
   24309    23281    23345 1
   24310    23281    23346 1
   24311    23282    23283 1
   24312    23282    23347 1
   24313    23282    23348 1
   24314    23283    23284 1
   24315    23283    23349 1
   24316    23283    23350 1
   24317    23284    23351 1
   24318    23284    23352 1
   24319    23284    23353 1
   24320    23354    23355 1
   24321    23354    23374 1
   24322    23354    23390 1
   24323    23354    23358 1
   24324    23355    23356 1
   24325    23355    23373 1
   24326    23356    23357 1
   24327    23356    23371 1
   24328    23357    23358 1
   24329    23357    23361 1
   24330    23358    23359 1
   24331    23359    23360 1
   24332    23359    23406 1
   24333    23360    23361 1
   24334    23360    23362 1
   24335    23362    23363 1
   24336    23362    23367 1
   24337    23363    23364 1
   24338    23363    23407 1
   24339    23364    23365 1
   24340    23365    23366 1
   24341    23366    23367 1
   24342    23366    23370 1
   24343    23367    23368 1
   24344    23368    23369 1
   24345    23369    23370 1
   24346    23371    23372 1
   24347    23372    23373 1
   24348    23372    23486 1
   24349    23373    23408 1
   24350    23374    23375 1
   24351    23374    23409 1
   24352    23374    23410 1
   24353    23375    23376 1
   24354    23375    23382 1
   24355    23375    23411 1
   24356    23376    23377 1
   24357    23376    23412 1
   24358    23376    23413 1
   24359    23377    23378 1
   24360    23377    23414 1
   24361    23377    23415 1
   24362    23378    23379 1
   24363    23378    23416 1
   24364    23378    23417 1
   24365    23379    23380 1
   24366    23379    23418 1
   24367    23379    23419 1
   24368    23380    23381 1
   24369    23380    23420 1
   24370    23380    23421 1
   24371    23381    23422 1
   24372    23381    23423 1
   24373    23381    23424 1
   24374    23382    23383 1
   24375    23382    23425 1
   24376    23382    23426 1
   24377    23383    23384 1
   24378    23383    23427 1
   24379    23383    23428 1
   24380    23384    23385 1
   24381    23384    23429 1
   24382    23384    23430 1
   24383    23385    23386 1
   24384    23385    23431 1
   24385    23385    23432 1
   24386    23386    23387 1
   24387    23386    23433 1
   24388    23386    23434 1
   24389    23387    23388 1
   24390    23387    23435 1
   24391    23387    23436 1
   24392    23388    23389 1
   24393    23388    23437 1
   24394    23388    23438 1
   24395    23389    23439 1
   24396    23389    23440 1
   24397    23389    23441 1
   24398    23390    23391 1
   24399    23390    23442 1
   24400    23390    23443 1
   24401    23391    23392 1
   24402    23391    23398 1
   24403    23391    23444 1
   24404    23392    23393 1
   24405    23392    23445 1
   24406    23392    23446 1
   24407    23393    23394 1
   24408    23393    23447 1
   24409    23393    23448 1
   24410    23394    23395 1
   24411    23394    23449 1
   24412    23394    23450 1
   24413    23395    23396 1
   24414    23395    23451 1
   24415    23395    23452 1
   24416    23396    23397 1
   24417    23396    23453 1
   24418    23396    23454 1
   24419    23397    23455 1
   24420    23397    23456 1
   24421    23397    23457 1
   24422    23398    23399 1
   24423    23398    23458 1
   24424    23398    23459 1
   24425    23399    23400 1
   24426    23399    23460 1
   24427    23399    23461 1
   24428    23400    23401 1
   24429    23400    23462 1
   24430    23400    23463 1
   24431    23401    23402 1
   24432    23401    23464 1
   24433    23401    23465 1
   24434    23402    23403 1
   24435    23402    23466 1
   24436    23402    23467 1
   24437    23403    23404 1
   24438    23403    23468 1
   24439    23403    23469 1
   24440    23404    23405 1
   24441    23404    23470 1
   24442    23404    23471 1
   24443    23405    23472 1
   24444    23405    23473 1
   24445    23405    23474 1
   24446    23475    23476 1
   24447    23475    23495 1
   24448    23475    23511 1
   24449    23475    23479 1
   24450    23476    23477 1
   24451    23476    23494 1
   24452    23477    23478 1
   24453    23477    23492 1
   24454    23478    23479 1
   24455    23478    23482 1
   24456    23479    23480 1
   24457    23480    23481 1
   24458    23480    23527 1
   24459    23481    23482 1
   24460    23481    23483 1
   24461    23483    23484 1
   24462    23483    23488 1
   24463    23484    23485 1
   24464    23484    23528 1
   24465    23485    23486 1
   24466    23486    23487 1
   24467    23487    23488 1
   24468    23487    23491 1
   24469    23488    23489 1
   24470    23489    23490 1
   24471    23490    23491 1
   24472    23492    23493 1
   24473    23493    23494 1
   24474    23493    23607 1
   24475    23494    23529 1
   24476    23495    23496 1
   24477    23495    23530 1
   24478    23495    23531 1
   24479    23496    23497 1
   24480    23496    23503 1
   24481    23496    23532 1
   24482    23497    23498 1
   24483    23497    23533 1
   24484    23497    23534 1
   24485    23498    23499 1
   24486    23498    23535 1
   24487    23498    23536 1
   24488    23499    23500 1
   24489    23499    23537 1
   24490    23499    23538 1
   24491    23500    23501 1
   24492    23500    23539 1
   24493    23500    23540 1
   24494    23501    23502 1
   24495    23501    23541 1
   24496    23501    23542 1
   24497    23502    23543 1
   24498    23502    23544 1
   24499    23502    23545 1
   24500    23503    23504 1
   24501    23503    23546 1
   24502    23503    23547 1
   24503    23504    23505 1
   24504    23504    23548 1
   24505    23504    23549 1
   24506    23505    23506 1
   24507    23505    23550 1
   24508    23505    23551 1
   24509    23506    23507 1
   24510    23506    23552 1
   24511    23506    23553 1
   24512    23507    23508 1
   24513    23507    23554 1
   24514    23507    23555 1
   24515    23508    23509 1
   24516    23508    23556 1
   24517    23508    23557 1
   24518    23509    23510 1
   24519    23509    23558 1
   24520    23509    23559 1
   24521    23510    23560 1
   24522    23510    23561 1
   24523    23510    23562 1
   24524    23511    23512 1
   24525    23511    23563 1
   24526    23511    23564 1
   24527    23512    23513 1
   24528    23512    23519 1
   24529    23512    23565 1
   24530    23513    23514 1
   24531    23513    23566 1
   24532    23513    23567 1
   24533    23514    23515 1
   24534    23514    23568 1
   24535    23514    23569 1
   24536    23515    23516 1
   24537    23515    23570 1
   24538    23515    23571 1
   24539    23516    23517 1
   24540    23516    23572 1
   24541    23516    23573 1
   24542    23517    23518 1
   24543    23517    23574 1
   24544    23517    23575 1
   24545    23518    23576 1
   24546    23518    23577 1
   24547    23518    23578 1
   24548    23519    23520 1
   24549    23519    23579 1
   24550    23519    23580 1
   24551    23520    23521 1
   24552    23520    23581 1
   24553    23520    23582 1
   24554    23521    23522 1
   24555    23521    23583 1
   24556    23521    23584 1
   24557    23522    23523 1
   24558    23522    23585 1
   24559    23522    23586 1
   24560    23523    23524 1
   24561    23523    23587 1
   24562    23523    23588 1
   24563    23524    23525 1
   24564    23524    23589 1
   24565    23524    23590 1
   24566    23525    23526 1
   24567    23525    23591 1
   24568    23525    23592 1
   24569    23526    23593 1
   24570    23526    23594 1
   24571    23526    23595 1
   24572    23596    23597 1
   24573    23596    23616 1
   24574    23596    23632 1
   24575    23596    23600 1
   24576    23597    23598 1
   24577    23597    23615 1
   24578    23598    23599 1
   24579    23598    23613 1
   24580    23599    23600 1
   24581    23599    23603 1
   24582    23600    23601 1
   24583    23601    23602 1
   24584    23601    23648 1
   24585    23602    23603 1
   24586    23602    23604 1
   24587    23604    23605 1
   24588    23604    23609 1
   24589    23605    23606 1
   24590    23605    23649 1
   24591    23606    23607 1
   24592    23607    23608 1
   24593    23608    23609 1
   24594    23608    23612 1
   24595    23609    23610 1
   24596    23610    23611 1
   24597    23611    23612 1
   24598    23613    23614 1
   24599    23614    23615 1
   24600    23614    23728 1
   24601    23615    23650 1
   24602    23616    23617 1
   24603    23616    23651 1
   24604    23616    23652 1
   24605    23617    23618 1
   24606    23617    23624 1
   24607    23617    23653 1
   24608    23618    23619 1
   24609    23618    23654 1
   24610    23618    23655 1
   24611    23619    23620 1
   24612    23619    23656 1
   24613    23619    23657 1
   24614    23620    23621 1
   24615    23620    23658 1
   24616    23620    23659 1
   24617    23621    23622 1
   24618    23621    23660 1
   24619    23621    23661 1
   24620    23622    23623 1
   24621    23622    23662 1
   24622    23622    23663 1
   24623    23623    23664 1
   24624    23623    23665 1
   24625    23623    23666 1
   24626    23624    23625 1
   24627    23624    23667 1
   24628    23624    23668 1
   24629    23625    23626 1
   24630    23625    23669 1
   24631    23625    23670 1
   24632    23626    23627 1
   24633    23626    23671 1
   24634    23626    23672 1
   24635    23627    23628 1
   24636    23627    23673 1
   24637    23627    23674 1
   24638    23628    23629 1
   24639    23628    23675 1
   24640    23628    23676 1
   24641    23629    23630 1
   24642    23629    23677 1
   24643    23629    23678 1
   24644    23630    23631 1
   24645    23630    23679 1
   24646    23630    23680 1
   24647    23631    23681 1
   24648    23631    23682 1
   24649    23631    23683 1
   24650    23632    23633 1
   24651    23632    23684 1
   24652    23632    23685 1
   24653    23633    23634 1
   24654    23633    23640 1
   24655    23633    23686 1
   24656    23634    23635 1
   24657    23634    23687 1
   24658    23634    23688 1
   24659    23635    23636 1
   24660    23635    23689 1
   24661    23635    23690 1
   24662    23636    23637 1
   24663    23636    23691 1
   24664    23636    23692 1
   24665    23637    23638 1
   24666    23637    23693 1
   24667    23637    23694 1
   24668    23638    23639 1
   24669    23638    23695 1
   24670    23638    23696 1
   24671    23639    23697 1
   24672    23639    23698 1
   24673    23639    23699 1
   24674    23640    23641 1
   24675    23640    23700 1
   24676    23640    23701 1
   24677    23641    23642 1
   24678    23641    23702 1
   24679    23641    23703 1
   24680    23642    23643 1
   24681    23642    23704 1
   24682    23642    23705 1
   24683    23643    23644 1
   24684    23643    23706 1
   24685    23643    23707 1
   24686    23644    23645 1
   24687    23644    23708 1
   24688    23644    23709 1
   24689    23645    23646 1
   24690    23645    23710 1
   24691    23645    23711 1
   24692    23646    23647 1
   24693    23646    23712 1
   24694    23646    23713 1
   24695    23647    23714 1
   24696    23647    23715 1
   24697    23647    23716 1
   24698    23717    23718 1
   24699    23717    23737 1
   24700    23717    23753 1
   24701    23717    23721 1
   24702    23718    23719 1
   24703    23718    23736 1
   24704    23719    23720 1
   24705    23719    23734 1
   24706    23720    23721 1
   24707    23720    23724 1
   24708    23721    23722 1
   24709    23722    23723 1
   24710    23722    23769 1
   24711    23723    23724 1
   24712    23723    23725 1
   24713    23725    23726 1
   24714    23725    23730 1
   24715    23726    23727 1
   24716    23726    23770 1
   24717    23727    23728 1
   24718    23728    23729 1
   24719    23729    23730 1
   24720    23729    23733 1
   24721    23730    23731 1
   24722    23731    23732 1
   24723    23732    23733 1
   24724    23734    23735 1
   24725    23735    23736 1
   24726    23735    23849 1
   24727    23736    23771 1
   24728    23737    23738 1
   24729    23737    23772 1
   24730    23737    23773 1
   24731    23738    23739 1
   24732    23738    23745 1
   24733    23738    23774 1
   24734    23739    23740 1
   24735    23739    23775 1
   24736    23739    23776 1
   24737    23740    23741 1
   24738    23740    23777 1
   24739    23740    23778 1
   24740    23741    23742 1
   24741    23741    23779 1
   24742    23741    23780 1
   24743    23742    23743 1
   24744    23742    23781 1
   24745    23742    23782 1
   24746    23743    23744 1
   24747    23743    23783 1
   24748    23743    23784 1
   24749    23744    23785 1
   24750    23744    23786 1
   24751    23744    23787 1
   24752    23745    23746 1
   24753    23745    23788 1
   24754    23745    23789 1
   24755    23746    23747 1
   24756    23746    23790 1
   24757    23746    23791 1
   24758    23747    23748 1
   24759    23747    23792 1
   24760    23747    23793 1
   24761    23748    23749 1
   24762    23748    23794 1
   24763    23748    23795 1
   24764    23749    23750 1
   24765    23749    23796 1
   24766    23749    23797 1
   24767    23750    23751 1
   24768    23750    23798 1
   24769    23750    23799 1
   24770    23751    23752 1
   24771    23751    23800 1
   24772    23751    23801 1
   24773    23752    23802 1
   24774    23752    23803 1
   24775    23752    23804 1
   24776    23753    23754 1
   24777    23753    23805 1
   24778    23753    23806 1
   24779    23754    23755 1
   24780    23754    23761 1
   24781    23754    23807 1
   24782    23755    23756 1
   24783    23755    23808 1
   24784    23755    23809 1
   24785    23756    23757 1
   24786    23756    23810 1
   24787    23756    23811 1
   24788    23757    23758 1
   24789    23757    23812 1
   24790    23757    23813 1
   24791    23758    23759 1
   24792    23758    23814 1
   24793    23758    23815 1
   24794    23759    23760 1
   24795    23759    23816 1
   24796    23759    23817 1
   24797    23760    23818 1
   24798    23760    23819 1
   24799    23760    23820 1
   24800    23761    23762 1
   24801    23761    23821 1
   24802    23761    23822 1
   24803    23762    23763 1
   24804    23762    23823 1
   24805    23762    23824 1
   24806    23763    23764 1
   24807    23763    23825 1
   24808    23763    23826 1
   24809    23764    23765 1
   24810    23764    23827 1
   24811    23764    23828 1
   24812    23765    23766 1
   24813    23765    23829 1
   24814    23765    23830 1
   24815    23766    23767 1
   24816    23766    23831 1
   24817    23766    23832 1
   24818    23767    23768 1
   24819    23767    23833 1
   24820    23767    23834 1
   24821    23768    23835 1
   24822    23768    23836 1
   24823    23768    23837 1
   24824    23838    23839 1
   24825    23838    23858 1
   24826    23838    23874 1
   24827    23838    23842 1
   24828    23839    23840 1
   24829    23839    23857 1
   24830    23840    23841 1
   24831    23840    23855 1
   24832    23841    23842 1
   24833    23841    23845 1
   24834    23842    23843 1
   24835    23843    23844 1
   24836    23843    23890 1
   24837    23844    23845 1
   24838    23844    23846 1
   24839    23846    23847 1
   24840    23846    23851 1
   24841    23847    23848 1
   24842    23847    23891 1
   24843    23848    23849 1
   24844    23849    23850 1
   24845    23850    23851 1
   24846    23850    23854 1
   24847    23851    23852 1
   24848    23852    23853 1
   24849    23853    23854 1
   24850    23855    23856 1
   24851    23856    23857 1
   24852    23856    23970 1
   24853    23857    23892 1
   24854    23858    23859 1
   24855    23858    23893 1
   24856    23858    23894 1
   24857    23859    23860 1
   24858    23859    23866 1
   24859    23859    23895 1
   24860    23860    23861 1
   24861    23860    23896 1
   24862    23860    23897 1
   24863    23861    23862 1
   24864    23861    23898 1
   24865    23861    23899 1
   24866    23862    23863 1
   24867    23862    23900 1
   24868    23862    23901 1
   24869    23863    23864 1
   24870    23863    23902 1
   24871    23863    23903 1
   24872    23864    23865 1
   24873    23864    23904 1
   24874    23864    23905 1
   24875    23865    23906 1
   24876    23865    23907 1
   24877    23865    23908 1
   24878    23866    23867 1
   24879    23866    23909 1
   24880    23866    23910 1
   24881    23867    23868 1
   24882    23867    23911 1
   24883    23867    23912 1
   24884    23868    23869 1
   24885    23868    23913 1
   24886    23868    23914 1
   24887    23869    23870 1
   24888    23869    23915 1
   24889    23869    23916 1
   24890    23870    23871 1
   24891    23870    23917 1
   24892    23870    23918 1
   24893    23871    23872 1
   24894    23871    23919 1
   24895    23871    23920 1
   24896    23872    23873 1
   24897    23872    23921 1
   24898    23872    23922 1
   24899    23873    23923 1
   24900    23873    23924 1
   24901    23873    23925 1
   24902    23874    23875 1
   24903    23874    23926 1
   24904    23874    23927 1
   24905    23875    23876 1
   24906    23875    23882 1
   24907    23875    23928 1
   24908    23876    23877 1
   24909    23876    23929 1
   24910    23876    23930 1
   24911    23877    23878 1
   24912    23877    23931 1
   24913    23877    23932 1
   24914    23878    23879 1
   24915    23878    23933 1
   24916    23878    23934 1
   24917    23879    23880 1
   24918    23879    23935 1
   24919    23879    23936 1
   24920    23880    23881 1
   24921    23880    23937 1
   24922    23880    23938 1
   24923    23881    23939 1
   24924    23881    23940 1
   24925    23881    23941 1
   24926    23882    23883 1
   24927    23882    23942 1
   24928    23882    23943 1
   24929    23883    23884 1
   24930    23883    23944 1
   24931    23883    23945 1
   24932    23884    23885 1
   24933    23884    23946 1
   24934    23884    23947 1
   24935    23885    23886 1
   24936    23885    23948 1
   24937    23885    23949 1
   24938    23886    23887 1
   24939    23886    23950 1
   24940    23886    23951 1
   24941    23887    23888 1
   24942    23887    23952 1
   24943    23887    23953 1
   24944    23888    23889 1
   24945    23888    23954 1
   24946    23888    23955 1
   24947    23889    23956 1
   24948    23889    23957 1
   24949    23889    23958 1
   24950    23959    23960 1
   24951    23959    23979 1
   24952    23959    23995 1
   24953    23959    23963 1
   24954    23960    23961 1
   24955    23960    23978 1
   24956    23961    23962 1
   24957    23961    23976 1
   24958    23962    23963 1
   24959    23962    23966 1
   24960    23963    23964 1
   24961    23964    23965 1
   24962    23964    24011 1
   24963    23965    23966 1
   24964    23965    23967 1
   24965    23967    23968 1
   24966    23967    23972 1
   24967    23968    23969 1
   24968    23968    24012 1
   24969    23969    23970 1
   24970    23970    23971 1
   24971    23971    23972 1
   24972    23971    23975 1
   24973    23972    23973 1
   24974    23973    23974 1
   24975    23974    23975 1
   24976    23976    23977 1
   24977    23977    23978 1
   24978    23977    24091 1
   24979    23978    24013 1
   24980    23979    23980 1
   24981    23979    24014 1
   24982    23979    24015 1
   24983    23980    23981 1
   24984    23980    23987 1
   24985    23980    24016 1
   24986    23981    23982 1
   24987    23981    24017 1
   24988    23981    24018 1
   24989    23982    23983 1
   24990    23982    24019 1
   24991    23982    24020 1
   24992    23983    23984 1
   24993    23983    24021 1
   24994    23983    24022 1
   24995    23984    23985 1
   24996    23984    24023 1
   24997    23984    24024 1
   24998    23985    23986 1
   24999    23985    24025 1
   25000    23985    24026 1
   25001    23986    24027 1
   25002    23986    24028 1
   25003    23986    24029 1
   25004    23987    23988 1
   25005    23987    24030 1
   25006    23987    24031 1
   25007    23988    23989 1
   25008    23988    24032 1
   25009    23988    24033 1
   25010    23989    23990 1
   25011    23989    24034 1
   25012    23989    24035 1
   25013    23990    23991 1
   25014    23990    24036 1
   25015    23990    24037 1
   25016    23991    23992 1
   25017    23991    24038 1
   25018    23991    24039 1
   25019    23992    23993 1
   25020    23992    24040 1
   25021    23992    24041 1
   25022    23993    23994 1
   25023    23993    24042 1
   25024    23993    24043 1
   25025    23994    24044 1
   25026    23994    24045 1
   25027    23994    24046 1
   25028    23995    23996 1
   25029    23995    24047 1
   25030    23995    24048 1
   25031    23996    23997 1
   25032    23996    24003 1
   25033    23996    24049 1
   25034    23997    23998 1
   25035    23997    24050 1
   25036    23997    24051 1
   25037    23998    23999 1
   25038    23998    24052 1
   25039    23998    24053 1
   25040    23999    24000 1
   25041    23999    24054 1
   25042    23999    24055 1
   25043    24000    24001 1
   25044    24000    24056 1
   25045    24000    24057 1
   25046    24001    24002 1
   25047    24001    24058 1
   25048    24001    24059 1
   25049    24002    24060 1
   25050    24002    24061 1
   25051    24002    24062 1
   25052    24003    24004 1
   25053    24003    24063 1
   25054    24003    24064 1
   25055    24004    24005 1
   25056    24004    24065 1
   25057    24004    24066 1
   25058    24005    24006 1
   25059    24005    24067 1
   25060    24005    24068 1
   25061    24006    24007 1
   25062    24006    24069 1
   25063    24006    24070 1
   25064    24007    24008 1
   25065    24007    24071 1
   25066    24007    24072 1
   25067    24008    24009 1
   25068    24008    24073 1
   25069    24008    24074 1
   25070    24009    24010 1
   25071    24009    24075 1
   25072    24009    24076 1
   25073    24010    24077 1
   25074    24010    24078 1
   25075    24010    24079 1
   25076    24080    24081 1
   25077    24080    24100 1
   25078    24080    24116 1
   25079    24080    24084 1
   25080    24081    24082 1
   25081    24081    24099 1
   25082    24082    24083 1
   25083    24082    24097 1
   25084    24083    24084 1
   25085    24083    24087 1
   25086    24084    24085 1
   25087    24085    24086 1
   25088    24085    24132 1
   25089    24086    24087 1
   25090    24086    24088 1
   25091    24088    24089 1
   25092    24088    24093 1
   25093    24089    24090 1
   25094    24089    24133 1
   25095    24090    24091 1
   25096    24091    24092 1
   25097    24092    24093 1
   25098    24092    24096 1
   25099    24093    24094 1
   25100    24094    24095 1
   25101    24095    24096 1
   25102    24097    24098 1
   25103    24098    24099 1
   25104    24098    24212 1
   25105    24099    24134 1
   25106    24100    24101 1
   25107    24100    24135 1
   25108    24100    24136 1
   25109    24101    24102 1
   25110    24101    24108 1
   25111    24101    24137 1
   25112    24102    24103 1
   25113    24102    24138 1
   25114    24102    24139 1
   25115    24103    24104 1
   25116    24103    24140 1
   25117    24103    24141 1
   25118    24104    24105 1
   25119    24104    24142 1
   25120    24104    24143 1
   25121    24105    24106 1
   25122    24105    24144 1
   25123    24105    24145 1
   25124    24106    24107 1
   25125    24106    24146 1
   25126    24106    24147 1
   25127    24107    24148 1
   25128    24107    24149 1
   25129    24107    24150 1
   25130    24108    24109 1
   25131    24108    24151 1
   25132    24108    24152 1
   25133    24109    24110 1
   25134    24109    24153 1
   25135    24109    24154 1
   25136    24110    24111 1
   25137    24110    24155 1
   25138    24110    24156 1
   25139    24111    24112 1
   25140    24111    24157 1
   25141    24111    24158 1
   25142    24112    24113 1
   25143    24112    24159 1
   25144    24112    24160 1
   25145    24113    24114 1
   25146    24113    24161 1
   25147    24113    24162 1
   25148    24114    24115 1
   25149    24114    24163 1
   25150    24114    24164 1
   25151    24115    24165 1
   25152    24115    24166 1
   25153    24115    24167 1
   25154    24116    24117 1
   25155    24116    24168 1
   25156    24116    24169 1
   25157    24117    24118 1
   25158    24117    24124 1
   25159    24117    24170 1
   25160    24118    24119 1
   25161    24118    24171 1
   25162    24118    24172 1
   25163    24119    24120 1
   25164    24119    24173 1
   25165    24119    24174 1
   25166    24120    24121 1
   25167    24120    24175 1
   25168    24120    24176 1
   25169    24121    24122 1
   25170    24121    24177 1
   25171    24121    24178 1
   25172    24122    24123 1
   25173    24122    24179 1
   25174    24122    24180 1
   25175    24123    24181 1
   25176    24123    24182 1
   25177    24123    24183 1
   25178    24124    24125 1
   25179    24124    24184 1
   25180    24124    24185 1
   25181    24125    24126 1
   25182    24125    24186 1
   25183    24125    24187 1
   25184    24126    24127 1
   25185    24126    24188 1
   25186    24126    24189 1
   25187    24127    24128 1
   25188    24127    24190 1
   25189    24127    24191 1
   25190    24128    24129 1
   25191    24128    24192 1
   25192    24128    24193 1
   25193    24129    24130 1
   25194    24129    24194 1
   25195    24129    24195 1
   25196    24130    24131 1
   25197    24130    24196 1
   25198    24130    24197 1
   25199    24131    24198 1
   25200    24131    24199 1
   25201    24131    24200 1
   25202    24201    24202 1
   25203    24201    24221 1
   25204    24201    24237 1
   25205    24201    24205 1
   25206    24202    24203 1
   25207    24202    24220 1
   25208    24203    24204 1
   25209    24203    24218 1
   25210    24204    24205 1
   25211    24204    24208 1
   25212    24205    24206 1
   25213    24206    24207 1
   25214    24206    24253 1
   25215    24207    24208 1
   25216    24207    24209 1
   25217    24209    24210 1
   25218    24209    24214 1
   25219    24210    24211 1
   25220    24210    24254 1
   25221    24211    24212 1
   25222    24212    24213 1
   25223    24213    24214 1
   25224    24213    24217 1
   25225    24214    24215 1
   25226    24215    24216 1
   25227    24216    24217 1
   25228    24218    24219 1
   25229    24219    24220 1
   25230    24219    24333 1
   25231    24220    24255 1
   25232    24221    24222 1
   25233    24221    24256 1
   25234    24221    24257 1
   25235    24222    24223 1
   25236    24222    24229 1
   25237    24222    24258 1
   25238    24223    24224 1
   25239    24223    24259 1
   25240    24223    24260 1
   25241    24224    24225 1
   25242    24224    24261 1
   25243    24224    24262 1
   25244    24225    24226 1
   25245    24225    24263 1
   25246    24225    24264 1
   25247    24226    24227 1
   25248    24226    24265 1
   25249    24226    24266 1
   25250    24227    24228 1
   25251    24227    24267 1
   25252    24227    24268 1
   25253    24228    24269 1
   25254    24228    24270 1
   25255    24228    24271 1
   25256    24229    24230 1
   25257    24229    24272 1
   25258    24229    24273 1
   25259    24230    24231 1
   25260    24230    24274 1
   25261    24230    24275 1
   25262    24231    24232 1
   25263    24231    24276 1
   25264    24231    24277 1
   25265    24232    24233 1
   25266    24232    24278 1
   25267    24232    24279 1
   25268    24233    24234 1
   25269    24233    24280 1
   25270    24233    24281 1
   25271    24234    24235 1
   25272    24234    24282 1
   25273    24234    24283 1
   25274    24235    24236 1
   25275    24235    24284 1
   25276    24235    24285 1
   25277    24236    24286 1
   25278    24236    24287 1
   25279    24236    24288 1
   25280    24237    24238 1
   25281    24237    24289 1
   25282    24237    24290 1
   25283    24238    24239 1
   25284    24238    24245 1
   25285    24238    24291 1
   25286    24239    24240 1
   25287    24239    24292 1
   25288    24239    24293 1
   25289    24240    24241 1
   25290    24240    24294 1
   25291    24240    24295 1
   25292    24241    24242 1
   25293    24241    24296 1
   25294    24241    24297 1
   25295    24242    24243 1
   25296    24242    24298 1
   25297    24242    24299 1
   25298    24243    24244 1
   25299    24243    24300 1
   25300    24243    24301 1
   25301    24244    24302 1
   25302    24244    24303 1
   25303    24244    24304 1
   25304    24245    24246 1
   25305    24245    24305 1
   25306    24245    24306 1
   25307    24246    24247 1
   25308    24246    24307 1
   25309    24246    24308 1
   25310    24247    24248 1
   25311    24247    24309 1
   25312    24247    24310 1
   25313    24248    24249 1
   25314    24248    24311 1
   25315    24248    24312 1
   25316    24249    24250 1
   25317    24249    24313 1
   25318    24249    24314 1
   25319    24250    24251 1
   25320    24250    24315 1
   25321    24250    24316 1
   25322    24251    24252 1
   25323    24251    24317 1
   25324    24251    24318 1
   25325    24252    24319 1
   25326    24252    24320 1
   25327    24252    24321 1
   25328    24322    24323 1
   25329    24322    24342 1
   25330    24322    24358 1
   25331    24322    24326 1
   25332    24323    24324 1
   25333    24323    24341 1
   25334    24324    24325 1
   25335    24324    24339 1
   25336    24325    24326 1
   25337    24325    24329 1
   25338    24326    24327 1
   25339    24327    24328 1
   25340    24327    24374 1
   25341    24328    24329 1
   25342    24328    24330 1
   25343    24330    24331 1
   25344    24330    24335 1
   25345    24331    24332 1
   25346    24331    24375 1
   25347    24332    24333 1
   25348    24333    24334 1
   25349    24334    24335 1
   25350    24334    24338 1
   25351    24335    24336 1
   25352    24336    24337 1
   25353    24337    24338 1
   25354    24339    24340 1
   25355    24340    24341 1
   25356    24340    24454 1
   25357    24341    24376 1
   25358    24342    24343 1
   25359    24342    24377 1
   25360    24342    24378 1
   25361    24343    24344 1
   25362    24343    24350 1
   25363    24343    24379 1
   25364    24344    24345 1
   25365    24344    24380 1
   25366    24344    24381 1
   25367    24345    24346 1
   25368    24345    24382 1
   25369    24345    24383 1
   25370    24346    24347 1
   25371    24346    24384 1
   25372    24346    24385 1
   25373    24347    24348 1
   25374    24347    24386 1
   25375    24347    24387 1
   25376    24348    24349 1
   25377    24348    24388 1
   25378    24348    24389 1
   25379    24349    24390 1
   25380    24349    24391 1
   25381    24349    24392 1
   25382    24350    24351 1
   25383    24350    24393 1
   25384    24350    24394 1
   25385    24351    24352 1
   25386    24351    24395 1
   25387    24351    24396 1
   25388    24352    24353 1
   25389    24352    24397 1
   25390    24352    24398 1
   25391    24353    24354 1
   25392    24353    24399 1
   25393    24353    24400 1
   25394    24354    24355 1
   25395    24354    24401 1
   25396    24354    24402 1
   25397    24355    24356 1
   25398    24355    24403 1
   25399    24355    24404 1
   25400    24356    24357 1
   25401    24356    24405 1
   25402    24356    24406 1
   25403    24357    24407 1
   25404    24357    24408 1
   25405    24357    24409 1
   25406    24358    24359 1
   25407    24358    24410 1
   25408    24358    24411 1
   25409    24359    24360 1
   25410    24359    24366 1
   25411    24359    24412 1
   25412    24360    24361 1
   25413    24360    24413 1
   25414    24360    24414 1
   25415    24361    24362 1
   25416    24361    24415 1
   25417    24361    24416 1
   25418    24362    24363 1
   25419    24362    24417 1
   25420    24362    24418 1
   25421    24363    24364 1
   25422    24363    24419 1
   25423    24363    24420 1
   25424    24364    24365 1
   25425    24364    24421 1
   25426    24364    24422 1
   25427    24365    24423 1
   25428    24365    24424 1
   25429    24365    24425 1
   25430    24366    24367 1
   25431    24366    24426 1
   25432    24366    24427 1
   25433    24367    24368 1
   25434    24367    24428 1
   25435    24367    24429 1
   25436    24368    24369 1
   25437    24368    24430 1
   25438    24368    24431 1
   25439    24369    24370 1
   25440    24369    24432 1
   25441    24369    24433 1
   25442    24370    24371 1
   25443    24370    24434 1
   25444    24370    24435 1
   25445    24371    24372 1
   25446    24371    24436 1
   25447    24371    24437 1
   25448    24372    24373 1
   25449    24372    24438 1
   25450    24372    24439 1
   25451    24373    24440 1
   25452    24373    24441 1
   25453    24373    24442 1
   25454    24443    24444 1
   25455    24443    24463 1
   25456    24443    24479 1
   25457    24443    24447 1
   25458    24444    24445 1
   25459    24444    24462 1
   25460    24445    24446 1
   25461    24445    24460 1
   25462    24446    24447 1
   25463    24446    24450 1
   25464    24447    24448 1
   25465    24448    24449 1
   25466    24448    24495 1
   25467    24449    24450 1
   25468    24449    24451 1
   25469    24451    24452 1
   25470    24451    24456 1
   25471    24452    24453 1
   25472    24452    24496 1
   25473    24453    24454 1
   25474    24454    24455 1
   25475    24455    24456 1
   25476    24455    24459 1
   25477    24456    24457 1
   25478    24457    24458 1
   25479    24458    24459 1
   25480    24460    24461 1
   25481    24461    24462 1
   25482    24461    24575 1
   25483    24462    24497 1
   25484    24463    24464 1
   25485    24463    24498 1
   25486    24463    24499 1
   25487    24464    24465 1
   25488    24464    24471 1
   25489    24464    24500 1
   25490    24465    24466 1
   25491    24465    24501 1
   25492    24465    24502 1
   25493    24466    24467 1
   25494    24466    24503 1
   25495    24466    24504 1
   25496    24467    24468 1
   25497    24467    24505 1
   25498    24467    24506 1
   25499    24468    24469 1
   25500    24468    24507 1
   25501    24468    24508 1
   25502    24469    24470 1
   25503    24469    24509 1
   25504    24469    24510 1
   25505    24470    24511 1
   25506    24470    24512 1
   25507    24470    24513 1
   25508    24471    24472 1
   25509    24471    24514 1
   25510    24471    24515 1
   25511    24472    24473 1
   25512    24472    24516 1
   25513    24472    24517 1
   25514    24473    24474 1
   25515    24473    24518 1
   25516    24473    24519 1
   25517    24474    24475 1
   25518    24474    24520 1
   25519    24474    24521 1
   25520    24475    24476 1
   25521    24475    24522 1
   25522    24475    24523 1
   25523    24476    24477 1
   25524    24476    24524 1
   25525    24476    24525 1
   25526    24477    24478 1
   25527    24477    24526 1
   25528    24477    24527 1
   25529    24478    24528 1
   25530    24478    24529 1
   25531    24478    24530 1
   25532    24479    24480 1
   25533    24479    24531 1
   25534    24479    24532 1
   25535    24480    24481 1
   25536    24480    24487 1
   25537    24480    24533 1
   25538    24481    24482 1
   25539    24481    24534 1
   25540    24481    24535 1
   25541    24482    24483 1
   25542    24482    24536 1
   25543    24482    24537 1
   25544    24483    24484 1
   25545    24483    24538 1
   25546    24483    24539 1
   25547    24484    24485 1
   25548    24484    24540 1
   25549    24484    24541 1
   25550    24485    24486 1
   25551    24485    24542 1
   25552    24485    24543 1
   25553    24486    24544 1
   25554    24486    24545 1
   25555    24486    24546 1
   25556    24487    24488 1
   25557    24487    24547 1
   25558    24487    24548 1
   25559    24488    24489 1
   25560    24488    24549 1
   25561    24488    24550 1
   25562    24489    24490 1
   25563    24489    24551 1
   25564    24489    24552 1
   25565    24490    24491 1
   25566    24490    24553 1
   25567    24490    24554 1
   25568    24491    24492 1
   25569    24491    24555 1
   25570    24491    24556 1
   25571    24492    24493 1
   25572    24492    24557 1
   25573    24492    24558 1
   25574    24493    24494 1
   25575    24493    24559 1
   25576    24493    24560 1
   25577    24494    24561 1
   25578    24494    24562 1
   25579    24494    24563 1
   25580    24564    24565 1
   25581    24564    24584 1
   25582    24564    24600 1
   25583    24564    24568 1
   25584    24565    24566 1
   25585    24565    24583 1
   25586    24566    24567 1
   25587    24566    24581 1
   25588    24567    24568 1
   25589    24567    24571 1
   25590    24568    24569 1
   25591    24569    24570 1
   25592    24569    24616 1
   25593    24570    24571 1
   25594    24570    24572 1
   25595    24572    24573 1
   25596    24572    24577 1
   25597    24573    24574 1
   25598    24573    24617 1
   25599    24574    24575 1
   25600    24575    24576 1
   25601    24576    24577 1
   25602    24576    24580 1
   25603    24577    24578 1
   25604    24578    24579 1
   25605    24579    24580 1
   25606    24581    24582 1
   25607    24582    24583 1
   25608    24582    24696 1
   25609    24583    24618 1
   25610    24584    24585 1
   25611    24584    24619 1
   25612    24584    24620 1
   25613    24585    24586 1
   25614    24585    24592 1
   25615    24585    24621 1
   25616    24586    24587 1
   25617    24586    24622 1
   25618    24586    24623 1
   25619    24587    24588 1
   25620    24587    24624 1
   25621    24587    24625 1
   25622    24588    24589 1
   25623    24588    24626 1
   25624    24588    24627 1
   25625    24589    24590 1
   25626    24589    24628 1
   25627    24589    24629 1
   25628    24590    24591 1
   25629    24590    24630 1
   25630    24590    24631 1
   25631    24591    24632 1
   25632    24591    24633 1
   25633    24591    24634 1
   25634    24592    24593 1
   25635    24592    24635 1
   25636    24592    24636 1
   25637    24593    24594 1
   25638    24593    24637 1
   25639    24593    24638 1
   25640    24594    24595 1
   25641    24594    24639 1
   25642    24594    24640 1
   25643    24595    24596 1
   25644    24595    24641 1
   25645    24595    24642 1
   25646    24596    24597 1
   25647    24596    24643 1
   25648    24596    24644 1
   25649    24597    24598 1
   25650    24597    24645 1
   25651    24597    24646 1
   25652    24598    24599 1
   25653    24598    24647 1
   25654    24598    24648 1
   25655    24599    24649 1
   25656    24599    24650 1
   25657    24599    24651 1
   25658    24600    24601 1
   25659    24600    24652 1
   25660    24600    24653 1
   25661    24601    24602 1
   25662    24601    24608 1
   25663    24601    24654 1
   25664    24602    24603 1
   25665    24602    24655 1
   25666    24602    24656 1
   25667    24603    24604 1
   25668    24603    24657 1
   25669    24603    24658 1
   25670    24604    24605 1
   25671    24604    24659 1
   25672    24604    24660 1
   25673    24605    24606 1
   25674    24605    24661 1
   25675    24605    24662 1
   25676    24606    24607 1
   25677    24606    24663 1
   25678    24606    24664 1
   25679    24607    24665 1
   25680    24607    24666 1
   25681    24607    24667 1
   25682    24608    24609 1
   25683    24608    24668 1
   25684    24608    24669 1
   25685    24609    24610 1
   25686    24609    24670 1
   25687    24609    24671 1
   25688    24610    24611 1
   25689    24610    24672 1
   25690    24610    24673 1
   25691    24611    24612 1
   25692    24611    24674 1
   25693    24611    24675 1
   25694    24612    24613 1
   25695    24612    24676 1
   25696    24612    24677 1
   25697    24613    24614 1
   25698    24613    24678 1
   25699    24613    24679 1
   25700    24614    24615 1
   25701    24614    24680 1
   25702    24614    24681 1
   25703    24615    24682 1
   25704    24615    24683 1
   25705    24615    24684 1
   25706    24685    24686 1
   25707    24685    24705 1
   25708    24685    24721 1
   25709    24685    24689 1
   25710    24686    24687 1
   25711    24686    24704 1
   25712    24687    24688 1
   25713    24687    24702 1
   25714    24688    24689 1
   25715    24688    24692 1
   25716    24689    24690 1
   25717    24690    24691 1
   25718    24690    24737 1
   25719    24691    24692 1
   25720    24691    24693 1
   25721    24693    24694 1
   25722    24693    24698 1
   25723    24694    24695 1
   25724    24694    24738 1
   25725    24695    24696 1
   25726    24696    24697 1
   25727    24697    24698 1
   25728    24697    24701 1
   25729    24698    24699 1
   25730    24699    24700 1
   25731    24700    24701 1
   25732    24702    24703 1
   25733    24703    24704 1
   25734    24703    24817 1
   25735    24704    24739 1
   25736    24705    24706 1
   25737    24705    24740 1
   25738    24705    24741 1
   25739    24706    24707 1
   25740    24706    24713 1
   25741    24706    24742 1
   25742    24707    24708 1
   25743    24707    24743 1
   25744    24707    24744 1
   25745    24708    24709 1
   25746    24708    24745 1
   25747    24708    24746 1
   25748    24709    24710 1
   25749    24709    24747 1
   25750    24709    24748 1
   25751    24710    24711 1
   25752    24710    24749 1
   25753    24710    24750 1
   25754    24711    24712 1
   25755    24711    24751 1
   25756    24711    24752 1
   25757    24712    24753 1
   25758    24712    24754 1
   25759    24712    24755 1
   25760    24713    24714 1
   25761    24713    24756 1
   25762    24713    24757 1
   25763    24714    24715 1
   25764    24714    24758 1
   25765    24714    24759 1
   25766    24715    24716 1
   25767    24715    24760 1
   25768    24715    24761 1
   25769    24716    24717 1
   25770    24716    24762 1
   25771    24716    24763 1
   25772    24717    24718 1
   25773    24717    24764 1
   25774    24717    24765 1
   25775    24718    24719 1
   25776    24718    24766 1
   25777    24718    24767 1
   25778    24719    24720 1
   25779    24719    24768 1
   25780    24719    24769 1
   25781    24720    24770 1
   25782    24720    24771 1
   25783    24720    24772 1
   25784    24721    24722 1
   25785    24721    24773 1
   25786    24721    24774 1
   25787    24722    24723 1
   25788    24722    24729 1
   25789    24722    24775 1
   25790    24723    24724 1
   25791    24723    24776 1
   25792    24723    24777 1
   25793    24724    24725 1
   25794    24724    24778 1
   25795    24724    24779 1
   25796    24725    24726 1
   25797    24725    24780 1
   25798    24725    24781 1
   25799    24726    24727 1
   25800    24726    24782 1
   25801    24726    24783 1
   25802    24727    24728 1
   25803    24727    24784 1
   25804    24727    24785 1
   25805    24728    24786 1
   25806    24728    24787 1
   25807    24728    24788 1
   25808    24729    24730 1
   25809    24729    24789 1
   25810    24729    24790 1
   25811    24730    24731 1
   25812    24730    24791 1
   25813    24730    24792 1
   25814    24731    24732 1
   25815    24731    24793 1
   25816    24731    24794 1
   25817    24732    24733 1
   25818    24732    24795 1
   25819    24732    24796 1
   25820    24733    24734 1
   25821    24733    24797 1
   25822    24733    24798 1
   25823    24734    24735 1
   25824    24734    24799 1
   25825    24734    24800 1
   25826    24735    24736 1
   25827    24735    24801 1
   25828    24735    24802 1
   25829    24736    24803 1
   25830    24736    24804 1
   25831    24736    24805 1
   25832    24806    24807 1
   25833    24806    24826 1
   25834    24806    24842 1
   25835    24806    24810 1
   25836    24807    24808 1
   25837    24807    24825 1
   25838    24808    24809 1
   25839    24808    24823 1
   25840    24809    24810 1
   25841    24809    24813 1
   25842    24810    24811 1
   25843    24811    24812 1
   25844    24811    24858 1
   25845    24812    24813 1
   25846    24812    24814 1
   25847    24814    24815 1
   25848    24814    24819 1
   25849    24815    24816 1
   25850    24815    24859 1
   25851    24816    24817 1
   25852    24817    24818 1
   25853    24818    24819 1
   25854    24818    24822 1
   25855    24819    24820 1
   25856    24820    24821 1
   25857    24821    24822 1
   25858    24823    24824 1
   25859    24824    24825 1
   25860    24824    24938 1
   25861    24825    24860 1
   25862    24826    24827 1
   25863    24826    24861 1
   25864    24826    24862 1
   25865    24827    24828 1
   25866    24827    24834 1
   25867    24827    24863 1
   25868    24828    24829 1
   25869    24828    24864 1
   25870    24828    24865 1
   25871    24829    24830 1
   25872    24829    24866 1
   25873    24829    24867 1
   25874    24830    24831 1
   25875    24830    24868 1
   25876    24830    24869 1
   25877    24831    24832 1
   25878    24831    24870 1
   25879    24831    24871 1
   25880    24832    24833 1
   25881    24832    24872 1
   25882    24832    24873 1
   25883    24833    24874 1
   25884    24833    24875 1
   25885    24833    24876 1
   25886    24834    24835 1
   25887    24834    24877 1
   25888    24834    24878 1
   25889    24835    24836 1
   25890    24835    24879 1
   25891    24835    24880 1
   25892    24836    24837 1
   25893    24836    24881 1
   25894    24836    24882 1
   25895    24837    24838 1
   25896    24837    24883 1
   25897    24837    24884 1
   25898    24838    24839 1
   25899    24838    24885 1
   25900    24838    24886 1
   25901    24839    24840 1
   25902    24839    24887 1
   25903    24839    24888 1
   25904    24840    24841 1
   25905    24840    24889 1
   25906    24840    24890 1
   25907    24841    24891 1
   25908    24841    24892 1
   25909    24841    24893 1
   25910    24842    24843 1
   25911    24842    24894 1
   25912    24842    24895 1
   25913    24843    24844 1
   25914    24843    24850 1
   25915    24843    24896 1
   25916    24844    24845 1
   25917    24844    24897 1
   25918    24844    24898 1
   25919    24845    24846 1
   25920    24845    24899 1
   25921    24845    24900 1
   25922    24846    24847 1
   25923    24846    24901 1
   25924    24846    24902 1
   25925    24847    24848 1
   25926    24847    24903 1
   25927    24847    24904 1
   25928    24848    24849 1
   25929    24848    24905 1
   25930    24848    24906 1
   25931    24849    24907 1
   25932    24849    24908 1
   25933    24849    24909 1
   25934    24850    24851 1
   25935    24850    24910 1
   25936    24850    24911 1
   25937    24851    24852 1
   25938    24851    24912 1
   25939    24851    24913 1
   25940    24852    24853 1
   25941    24852    24914 1
   25942    24852    24915 1
   25943    24853    24854 1
   25944    24853    24916 1
   25945    24853    24917 1
   25946    24854    24855 1
   25947    24854    24918 1
   25948    24854    24919 1
   25949    24855    24856 1
   25950    24855    24920 1
   25951    24855    24921 1
   25952    24856    24857 1
   25953    24856    24922 1
   25954    24856    24923 1
   25955    24857    24924 1
   25956    24857    24925 1
   25957    24857    24926 1
   25958    24927    24928 1
   25959    24927    24947 1
   25960    24927    24963 1
   25961    24927    24931 1
   25962    24928    24929 1
   25963    24928    24946 1
   25964    24929    24930 1
   25965    24929    24944 1
   25966    24930    24931 1
   25967    24930    24934 1
   25968    24931    24932 1
   25969    24932    24933 1
   25970    24932    24979 1
   25971    24933    24934 1
   25972    24933    24935 1
   25973    24935    24936 1
   25974    24935    24940 1
   25975    24936    24937 1
   25976    24936    24980 1
   25977    24937    24938 1
   25978    24938    24939 1
   25979    24939    24940 1
   25980    24939    24943 1
   25981    24940    24941 1
   25982    24941    24942 1
   25983    24942    24943 1
   25984    24944    24945 1
   25985    24945    24946 1
   25986    24945    25059 1
   25987    24946    24981 1
   25988    24947    24948 1
   25989    24947    24982 1
   25990    24947    24983 1
   25991    24948    24949 1
   25992    24948    24955 1
   25993    24948    24984 1
   25994    24949    24950 1
   25995    24949    24985 1
   25996    24949    24986 1
   25997    24950    24951 1
   25998    24950    24987 1
   25999    24950    24988 1
   26000    24951    24952 1
   26001    24951    24989 1
   26002    24951    24990 1
   26003    24952    24953 1
   26004    24952    24991 1
   26005    24952    24992 1
   26006    24953    24954 1
   26007    24953    24993 1
   26008    24953    24994 1
   26009    24954    24995 1
   26010    24954    24996 1
   26011    24954    24997 1
   26012    24955    24956 1
   26013    24955    24998 1
   26014    24955    24999 1
   26015    24956    24957 1
   26016    24956    25000 1
   26017    24956    25001 1
   26018    24957    24958 1
   26019    24957    25002 1
   26020    24957    25003 1
   26021    24958    24959 1
   26022    24958    25004 1
   26023    24958    25005 1
   26024    24959    24960 1
   26025    24959    25006 1
   26026    24959    25007 1
   26027    24960    24961 1
   26028    24960    25008 1
   26029    24960    25009 1
   26030    24961    24962 1
   26031    24961    25010 1
   26032    24961    25011 1
   26033    24962    25012 1
   26034    24962    25013 1
   26035    24962    25014 1
   26036    24963    24964 1
   26037    24963    25015 1
   26038    24963    25016 1
   26039    24964    24965 1
   26040    24964    24971 1
   26041    24964    25017 1
   26042    24965    24966 1
   26043    24965    25018 1
   26044    24965    25019 1
   26045    24966    24967 1
   26046    24966    25020 1
   26047    24966    25021 1
   26048    24967    24968 1
   26049    24967    25022 1
   26050    24967    25023 1
   26051    24968    24969 1
   26052    24968    25024 1
   26053    24968    25025 1
   26054    24969    24970 1
   26055    24969    25026 1
   26056    24969    25027 1
   26057    24970    25028 1
   26058    24970    25029 1
   26059    24970    25030 1
   26060    24971    24972 1
   26061    24971    25031 1
   26062    24971    25032 1
   26063    24972    24973 1
   26064    24972    25033 1
   26065    24972    25034 1
   26066    24973    24974 1
   26067    24973    25035 1
   26068    24973    25036 1
   26069    24974    24975 1
   26070    24974    25037 1
   26071    24974    25038 1
   26072    24975    24976 1
   26073    24975    25039 1
   26074    24975    25040 1
   26075    24976    24977 1
   26076    24976    25041 1
   26077    24976    25042 1
   26078    24977    24978 1
   26079    24977    25043 1
   26080    24977    25044 1
   26081    24978    25045 1
   26082    24978    25046 1
   26083    24978    25047 1
   26084    25048    25049 1
   26085    25048    25068 1
   26086    25048    25084 1
   26087    25048    25052 1
   26088    25049    25050 1
   26089    25049    25067 1
   26090    25050    25051 1
   26091    25050    25065 1
   26092    25051    25052 1
   26093    25051    25055 1
   26094    25052    25053 1
   26095    25053    25054 1
   26096    25053    25100 1
   26097    25054    25055 1
   26098    25054    25056 1
   26099    25056    25057 1
   26100    25056    25061 1
   26101    25057    25058 1
   26102    25057    25101 1
   26103    25058    25059 1
   26104    25059    25060 1
   26105    25060    25061 1
   26106    25060    25064 1
   26107    25061    25062 1
   26108    25062    25063 1
   26109    25063    25064 1
   26110    25065    25066 1
   26111    25066    25067 1
   26112    25066    25180 1
   26113    25067    25102 1
   26114    25068    25069 1
   26115    25068    25103 1
   26116    25068    25104 1
   26117    25069    25070 1
   26118    25069    25076 1
   26119    25069    25105 1
   26120    25070    25071 1
   26121    25070    25106 1
   26122    25070    25107 1
   26123    25071    25072 1
   26124    25071    25108 1
   26125    25071    25109 1
   26126    25072    25073 1
   26127    25072    25110 1
   26128    25072    25111 1
   26129    25073    25074 1
   26130    25073    25112 1
   26131    25073    25113 1
   26132    25074    25075 1
   26133    25074    25114 1
   26134    25074    25115 1
   26135    25075    25116 1
   26136    25075    25117 1
   26137    25075    25118 1
   26138    25076    25077 1
   26139    25076    25119 1
   26140    25076    25120 1
   26141    25077    25078 1
   26142    25077    25121 1
   26143    25077    25122 1
   26144    25078    25079 1
   26145    25078    25123 1
   26146    25078    25124 1
   26147    25079    25080 1
   26148    25079    25125 1
   26149    25079    25126 1
   26150    25080    25081 1
   26151    25080    25127 1
   26152    25080    25128 1
   26153    25081    25082 1
   26154    25081    25129 1
   26155    25081    25130 1
   26156    25082    25083 1
   26157    25082    25131 1
   26158    25082    25132 1
   26159    25083    25133 1
   26160    25083    25134 1
   26161    25083    25135 1
   26162    25084    25085 1
   26163    25084    25136 1
   26164    25084    25137 1
   26165    25085    25086 1
   26166    25085    25092 1
   26167    25085    25138 1
   26168    25086    25087 1
   26169    25086    25139 1
   26170    25086    25140 1
   26171    25087    25088 1
   26172    25087    25141 1
   26173    25087    25142 1
   26174    25088    25089 1
   26175    25088    25143 1
   26176    25088    25144 1
   26177    25089    25090 1
   26178    25089    25145 1
   26179    25089    25146 1
   26180    25090    25091 1
   26181    25090    25147 1
   26182    25090    25148 1
   26183    25091    25149 1
   26184    25091    25150 1
   26185    25091    25151 1
   26186    25092    25093 1
   26187    25092    25152 1
   26188    25092    25153 1
   26189    25093    25094 1
   26190    25093    25154 1
   26191    25093    25155 1
   26192    25094    25095 1
   26193    25094    25156 1
   26194    25094    25157 1
   26195    25095    25096 1
   26196    25095    25158 1
   26197    25095    25159 1
   26198    25096    25097 1
   26199    25096    25160 1
   26200    25096    25161 1
   26201    25097    25098 1
   26202    25097    25162 1
   26203    25097    25163 1
   26204    25098    25099 1
   26205    25098    25164 1
   26206    25098    25165 1
   26207    25099    25166 1
   26208    25099    25167 1
   26209    25099    25168 1
   26210    25169    25170 1
   26211    25169    25189 1
   26212    25169    25205 1
   26213    25169    25173 1
   26214    25170    25171 1
   26215    25170    25188 1
   26216    25171    25172 1
   26217    25171    25186 1
   26218    25172    25173 1
   26219    25172    25176 1
   26220    25173    25174 1
   26221    25174    25175 1
   26222    25174    25221 1
   26223    25175    25176 1
   26224    25175    25177 1
   26225    25177    25178 1
   26226    25177    25182 1
   26227    25178    25179 1
   26228    25178    25222 1
   26229    25179    25180 1
   26230    25180    25181 1
   26231    25181    25182 1
   26232    25181    25185 1
   26233    25182    25183 1
   26234    25183    25184 1
   26235    25184    25185 1
   26236    25186    25187 1
   26237    25187    25188 1
   26238    25187    25301 1
   26239    25188    25223 1
   26240    25189    25190 1
   26241    25189    25224 1
   26242    25189    25225 1
   26243    25190    25191 1
   26244    25190    25197 1
   26245    25190    25226 1
   26246    25191    25192 1
   26247    25191    25227 1
   26248    25191    25228 1
   26249    25192    25193 1
   26250    25192    25229 1
   26251    25192    25230 1
   26252    25193    25194 1
   26253    25193    25231 1
   26254    25193    25232 1
   26255    25194    25195 1
   26256    25194    25233 1
   26257    25194    25234 1
   26258    25195    25196 1
   26259    25195    25235 1
   26260    25195    25236 1
   26261    25196    25237 1
   26262    25196    25238 1
   26263    25196    25239 1
   26264    25197    25198 1
   26265    25197    25240 1
   26266    25197    25241 1
   26267    25198    25199 1
   26268    25198    25242 1
   26269    25198    25243 1
   26270    25199    25200 1
   26271    25199    25244 1
   26272    25199    25245 1
   26273    25200    25201 1
   26274    25200    25246 1
   26275    25200    25247 1
   26276    25201    25202 1
   26277    25201    25248 1
   26278    25201    25249 1
   26279    25202    25203 1
   26280    25202    25250 1
   26281    25202    25251 1
   26282    25203    25204 1
   26283    25203    25252 1
   26284    25203    25253 1
   26285    25204    25254 1
   26286    25204    25255 1
   26287    25204    25256 1
   26288    25205    25206 1
   26289    25205    25257 1
   26290    25205    25258 1
   26291    25206    25207 1
   26292    25206    25213 1
   26293    25206    25259 1
   26294    25207    25208 1
   26295    25207    25260 1
   26296    25207    25261 1
   26297    25208    25209 1
   26298    25208    25262 1
   26299    25208    25263 1
   26300    25209    25210 1
   26301    25209    25264 1
   26302    25209    25265 1
   26303    25210    25211 1
   26304    25210    25266 1
   26305    25210    25267 1
   26306    25211    25212 1
   26307    25211    25268 1
   26308    25211    25269 1
   26309    25212    25270 1
   26310    25212    25271 1
   26311    25212    25272 1
   26312    25213    25214 1
   26313    25213    25273 1
   26314    25213    25274 1
   26315    25214    25215 1
   26316    25214    25275 1
   26317    25214    25276 1
   26318    25215    25216 1
   26319    25215    25277 1
   26320    25215    25278 1
   26321    25216    25217 1
   26322    25216    25279 1
   26323    25216    25280 1
   26324    25217    25218 1
   26325    25217    25281 1
   26326    25217    25282 1
   26327    25218    25219 1
   26328    25218    25283 1
   26329    25218    25284 1
   26330    25219    25220 1
   26331    25219    25285 1
   26332    25219    25286 1
   26333    25220    25287 1
   26334    25220    25288 1
   26335    25220    25289 1
   26336    25290    25291 1
   26337    25290    25310 1
   26338    25290    25326 1
   26339    25290    25294 1
   26340    25291    25292 1
   26341    25291    25309 1
   26342    25292    25293 1
   26343    25292    25307 1
   26344    25293    25294 1
   26345    25293    25297 1
   26346    25294    25295 1
   26347    25295    25296 1
   26348    25295    25342 1
   26349    25296    25297 1
   26350    25296    25298 1
   26351    25298    25299 1
   26352    25298    25303 1
   26353    25299    25300 1
   26354    25299    25343 1
   26355    25300    25301 1
   26356    25301    25302 1
   26357    25302    25303 1
   26358    25302    25306 1
   26359    25303    25304 1
   26360    25304    25305 1
   26361    25305    25306 1
   26362    25307    25308 1
   26363    25308    25309 1
   26364    25308    25422 1
   26365    25309    25344 1
   26366    25310    25311 1
   26367    25310    25345 1
   26368    25310    25346 1
   26369    25311    25312 1
   26370    25311    25318 1
   26371    25311    25347 1
   26372    25312    25313 1
   26373    25312    25348 1
   26374    25312    25349 1
   26375    25313    25314 1
   26376    25313    25350 1
   26377    25313    25351 1
   26378    25314    25315 1
   26379    25314    25352 1
   26380    25314    25353 1
   26381    25315    25316 1
   26382    25315    25354 1
   26383    25315    25355 1
   26384    25316    25317 1
   26385    25316    25356 1
   26386    25316    25357 1
   26387    25317    25358 1
   26388    25317    25359 1
   26389    25317    25360 1
   26390    25318    25319 1
   26391    25318    25361 1
   26392    25318    25362 1
   26393    25319    25320 1
   26394    25319    25363 1
   26395    25319    25364 1
   26396    25320    25321 1
   26397    25320    25365 1
   26398    25320    25366 1
   26399    25321    25322 1
   26400    25321    25367 1
   26401    25321    25368 1
   26402    25322    25323 1
   26403    25322    25369 1
   26404    25322    25370 1
   26405    25323    25324 1
   26406    25323    25371 1
   26407    25323    25372 1
   26408    25324    25325 1
   26409    25324    25373 1
   26410    25324    25374 1
   26411    25325    25375 1
   26412    25325    25376 1
   26413    25325    25377 1
   26414    25326    25327 1
   26415    25326    25378 1
   26416    25326    25379 1
   26417    25327    25328 1
   26418    25327    25334 1
   26419    25327    25380 1
   26420    25328    25329 1
   26421    25328    25381 1
   26422    25328    25382 1
   26423    25329    25330 1
   26424    25329    25383 1
   26425    25329    25384 1
   26426    25330    25331 1
   26427    25330    25385 1
   26428    25330    25386 1
   26429    25331    25332 1
   26430    25331    25387 1
   26431    25331    25388 1
   26432    25332    25333 1
   26433    25332    25389 1
   26434    25332    25390 1
   26435    25333    25391 1
   26436    25333    25392 1
   26437    25333    25393 1
   26438    25334    25335 1
   26439    25334    25394 1
   26440    25334    25395 1
   26441    25335    25336 1
   26442    25335    25396 1
   26443    25335    25397 1
   26444    25336    25337 1
   26445    25336    25398 1
   26446    25336    25399 1
   26447    25337    25338 1
   26448    25337    25400 1
   26449    25337    25401 1
   26450    25338    25339 1
   26451    25338    25402 1
   26452    25338    25403 1
   26453    25339    25340 1
   26454    25339    25404 1
   26455    25339    25405 1
   26456    25340    25341 1
   26457    25340    25406 1
   26458    25340    25407 1
   26459    25341    25408 1
   26460    25341    25409 1
   26461    25341    25410 1
   26462    25411    25412 1
   26463    25411    25431 1
   26464    25411    25447 1
   26465    25411    25415 1
   26466    25412    25413 1
   26467    25412    25430 1
   26468    25413    25414 1
   26469    25413    25428 1
   26470    25414    25415 1
   26471    25414    25418 1
   26472    25415    25416 1
   26473    25416    25417 1
   26474    25416    25463 1
   26475    25417    25418 1
   26476    25417    25419 1
   26477    25419    25420 1
   26478    25419    25424 1
   26479    25420    25421 1
   26480    25420    25464 1
   26481    25421    25422 1
   26482    25422    25423 1
   26483    25423    25424 1
   26484    25423    25427 1
   26485    25424    25425 1
   26486    25425    25426 1
   26487    25426    25427 1
   26488    25428    25429 1
   26489    25429    25430 1
   26490    25429    25543 1
   26491    25430    25465 1
   26492    25431    25432 1
   26493    25431    25466 1
   26494    25431    25467 1
   26495    25432    25433 1
   26496    25432    25439 1
   26497    25432    25468 1
   26498    25433    25434 1
   26499    25433    25469 1
   26500    25433    25470 1
   26501    25434    25435 1
   26502    25434    25471 1
   26503    25434    25472 1
   26504    25435    25436 1
   26505    25435    25473 1
   26506    25435    25474 1
   26507    25436    25437 1
   26508    25436    25475 1
   26509    25436    25476 1
   26510    25437    25438 1
   26511    25437    25477 1
   26512    25437    25478 1
   26513    25438    25479 1
   26514    25438    25480 1
   26515    25438    25481 1
   26516    25439    25440 1
   26517    25439    25482 1
   26518    25439    25483 1
   26519    25440    25441 1
   26520    25440    25484 1
   26521    25440    25485 1
   26522    25441    25442 1
   26523    25441    25486 1
   26524    25441    25487 1
   26525    25442    25443 1
   26526    25442    25488 1
   26527    25442    25489 1
   26528    25443    25444 1
   26529    25443    25490 1
   26530    25443    25491 1
   26531    25444    25445 1
   26532    25444    25492 1
   26533    25444    25493 1
   26534    25445    25446 1
   26535    25445    25494 1
   26536    25445    25495 1
   26537    25446    25496 1
   26538    25446    25497 1
   26539    25446    25498 1
   26540    25447    25448 1
   26541    25447    25499 1
   26542    25447    25500 1
   26543    25448    25449 1
   26544    25448    25455 1
   26545    25448    25501 1
   26546    25449    25450 1
   26547    25449    25502 1
   26548    25449    25503 1
   26549    25450    25451 1
   26550    25450    25504 1
   26551    25450    25505 1
   26552    25451    25452 1
   26553    25451    25506 1
   26554    25451    25507 1
   26555    25452    25453 1
   26556    25452    25508 1
   26557    25452    25509 1
   26558    25453    25454 1
   26559    25453    25510 1
   26560    25453    25511 1
   26561    25454    25512 1
   26562    25454    25513 1
   26563    25454    25514 1
   26564    25455    25456 1
   26565    25455    25515 1
   26566    25455    25516 1
   26567    25456    25457 1
   26568    25456    25517 1
   26569    25456    25518 1
   26570    25457    25458 1
   26571    25457    25519 1
   26572    25457    25520 1
   26573    25458    25459 1
   26574    25458    25521 1
   26575    25458    25522 1
   26576    25459    25460 1
   26577    25459    25523 1
   26578    25459    25524 1
   26579    25460    25461 1
   26580    25460    25525 1
   26581    25460    25526 1
   26582    25461    25462 1
   26583    25461    25527 1
   26584    25461    25528 1
   26585    25462    25529 1
   26586    25462    25530 1
   26587    25462    25531 1
   26588    25532    25533 1
   26589    25532    25552 1
   26590    25532    25568 1
   26591    25532    25536 1
   26592    25533    25534 1
   26593    25533    25551 1
   26594    25534    25535 1
   26595    25534    25549 1
   26596    25535    25536 1
   26597    25535    25539 1
   26598    25536    25537 1
   26599    25537    25538 1
   26600    25537    25584 1
   26601    25538    25539 1
   26602    25538    25540 1
   26603    25540    25541 1
   26604    25540    25545 1
   26605    25541    25542 1
   26606    25541    25585 1
   26607    25542    25543 1
   26608    25543    25544 1
   26609    25544    25545 1
   26610    25544    25548 1
   26611    25545    25546 1
   26612    25546    25547 1
   26613    25547    25548 1
   26614    25549    25550 1
   26615    25550    25551 1
   26616    25550    25664 1
   26617    25551    25586 1
   26618    25552    25553 1
   26619    25552    25587 1
   26620    25552    25588 1
   26621    25553    25554 1
   26622    25553    25560 1
   26623    25553    25589 1
   26624    25554    25555 1
   26625    25554    25590 1
   26626    25554    25591 1
   26627    25555    25556 1
   26628    25555    25592 1
   26629    25555    25593 1
   26630    25556    25557 1
   26631    25556    25594 1
   26632    25556    25595 1
   26633    25557    25558 1
   26634    25557    25596 1
   26635    25557    25597 1
   26636    25558    25559 1
   26637    25558    25598 1
   26638    25558    25599 1
   26639    25559    25600 1
   26640    25559    25601 1
   26641    25559    25602 1
   26642    25560    25561 1
   26643    25560    25603 1
   26644    25560    25604 1
   26645    25561    25562 1
   26646    25561    25605 1
   26647    25561    25606 1
   26648    25562    25563 1
   26649    25562    25607 1
   26650    25562    25608 1
   26651    25563    25564 1
   26652    25563    25609 1
   26653    25563    25610 1
   26654    25564    25565 1
   26655    25564    25611 1
   26656    25564    25612 1
   26657    25565    25566 1
   26658    25565    25613 1
   26659    25565    25614 1
   26660    25566    25567 1
   26661    25566    25615 1
   26662    25566    25616 1
   26663    25567    25617 1
   26664    25567    25618 1
   26665    25567    25619 1
   26666    25568    25569 1
   26667    25568    25620 1
   26668    25568    25621 1
   26669    25569    25570 1
   26670    25569    25576 1
   26671    25569    25622 1
   26672    25570    25571 1
   26673    25570    25623 1
   26674    25570    25624 1
   26675    25571    25572 1
   26676    25571    25625 1
   26677    25571    25626 1
   26678    25572    25573 1
   26679    25572    25627 1
   26680    25572    25628 1
   26681    25573    25574 1
   26682    25573    25629 1
   26683    25573    25630 1
   26684    25574    25575 1
   26685    25574    25631 1
   26686    25574    25632 1
   26687    25575    25633 1
   26688    25575    25634 1
   26689    25575    25635 1
   26690    25576    25577 1
   26691    25576    25636 1
   26692    25576    25637 1
   26693    25577    25578 1
   26694    25577    25638 1
   26695    25577    25639 1
   26696    25578    25579 1
   26697    25578    25640 1
   26698    25578    25641 1
   26699    25579    25580 1
   26700    25579    25642 1
   26701    25579    25643 1
   26702    25580    25581 1
   26703    25580    25644 1
   26704    25580    25645 1
   26705    25581    25582 1
   26706    25581    25646 1
   26707    25581    25647 1
   26708    25582    25583 1
   26709    25582    25648 1
   26710    25582    25649 1
   26711    25583    25650 1
   26712    25583    25651 1
   26713    25583    25652 1
   26714    25653    25654 1
   26715    25653    25673 1
   26716    25653    25689 1
   26717    25653    25657 1
   26718    25654    25655 1
   26719    25654    25672 1
   26720    25655    25656 1
   26721    25655    25670 1
   26722    25656    25657 1
   26723    25656    25660 1
   26724    25657    25658 1
   26725    25658    25659 1
   26726    25658    25705 1
   26727    25659    25660 1
   26728    25659    25661 1
   26729    25661    25662 1
   26730    25661    25666 1
   26731    25662    25663 1
   26732    25662    25706 1
   26733    25663    25664 1
   26734    25664    25665 1
   26735    25665    25666 1
   26736    25665    25669 1
   26737    25666    25667 1
   26738    25667    25668 1
   26739    25668    25669 1
   26740    25670    25671 1
   26741    25671    25672 1
   26742    25671    25785 1
   26743    25672    25707 1
   26744    25673    25674 1
   26745    25673    25708 1
   26746    25673    25709 1
   26747    25674    25675 1
   26748    25674    25681 1
   26749    25674    25710 1
   26750    25675    25676 1
   26751    25675    25711 1
   26752    25675    25712 1
   26753    25676    25677 1
   26754    25676    25713 1
   26755    25676    25714 1
   26756    25677    25678 1
   26757    25677    25715 1
   26758    25677    25716 1
   26759    25678    25679 1
   26760    25678    25717 1
   26761    25678    25718 1
   26762    25679    25680 1
   26763    25679    25719 1
   26764    25679    25720 1
   26765    25680    25721 1
   26766    25680    25722 1
   26767    25680    25723 1
   26768    25681    25682 1
   26769    25681    25724 1
   26770    25681    25725 1
   26771    25682    25683 1
   26772    25682    25726 1
   26773    25682    25727 1
   26774    25683    25684 1
   26775    25683    25728 1
   26776    25683    25729 1
   26777    25684    25685 1
   26778    25684    25730 1
   26779    25684    25731 1
   26780    25685    25686 1
   26781    25685    25732 1
   26782    25685    25733 1
   26783    25686    25687 1
   26784    25686    25734 1
   26785    25686    25735 1
   26786    25687    25688 1
   26787    25687    25736 1
   26788    25687    25737 1
   26789    25688    25738 1
   26790    25688    25739 1
   26791    25688    25740 1
   26792    25689    25690 1
   26793    25689    25741 1
   26794    25689    25742 1
   26795    25690    25691 1
   26796    25690    25697 1
   26797    25690    25743 1
   26798    25691    25692 1
   26799    25691    25744 1
   26800    25691    25745 1
   26801    25692    25693 1
   26802    25692    25746 1
   26803    25692    25747 1
   26804    25693    25694 1
   26805    25693    25748 1
   26806    25693    25749 1
   26807    25694    25695 1
   26808    25694    25750 1
   26809    25694    25751 1
   26810    25695    25696 1
   26811    25695    25752 1
   26812    25695    25753 1
   26813    25696    25754 1
   26814    25696    25755 1
   26815    25696    25756 1
   26816    25697    25698 1
   26817    25697    25757 1
   26818    25697    25758 1
   26819    25698    25699 1
   26820    25698    25759 1
   26821    25698    25760 1
   26822    25699    25700 1
   26823    25699    25761 1
   26824    25699    25762 1
   26825    25700    25701 1
   26826    25700    25763 1
   26827    25700    25764 1
   26828    25701    25702 1
   26829    25701    25765 1
   26830    25701    25766 1
   26831    25702    25703 1
   26832    25702    25767 1
   26833    25702    25768 1
   26834    25703    25704 1
   26835    25703    25769 1
   26836    25703    25770 1
   26837    25704    25771 1
   26838    25704    25772 1
   26839    25704    25773 1
   26840    25774    25775 1
   26841    25774    25794 1
   26842    25774    25810 1
   26843    25774    25778 1
   26844    25775    25776 1
   26845    25775    25793 1
   26846    25776    25777 1
   26847    25776    25791 1
   26848    25777    25778 1
   26849    25777    25781 1
   26850    25778    25779 1
   26851    25779    25780 1
   26852    25779    25826 1
   26853    25780    25781 1
   26854    25780    25782 1
   26855    25782    25783 1
   26856    25782    25787 1
   26857    25783    25784 1
   26858    25783    25827 1
   26859    25784    25785 1
   26860    25785    25786 1
   26861    25786    25787 1
   26862    25786    25790 1
   26863    25787    25788 1
   26864    25788    25789 1
   26865    25789    25790 1
   26866    25791    25792 1
   26867    25792    25793 1
   26868    25792    25906 1
   26869    25793    25828 1
   26870    25794    25795 1
   26871    25794    25829 1
   26872    25794    25830 1
   26873    25795    25796 1
   26874    25795    25802 1
   26875    25795    25831 1
   26876    25796    25797 1
   26877    25796    25832 1
   26878    25796    25833 1
   26879    25797    25798 1
   26880    25797    25834 1
   26881    25797    25835 1
   26882    25798    25799 1
   26883    25798    25836 1
   26884    25798    25837 1
   26885    25799    25800 1
   26886    25799    25838 1
   26887    25799    25839 1
   26888    25800    25801 1
   26889    25800    25840 1
   26890    25800    25841 1
   26891    25801    25842 1
   26892    25801    25843 1
   26893    25801    25844 1
   26894    25802    25803 1
   26895    25802    25845 1
   26896    25802    25846 1
   26897    25803    25804 1
   26898    25803    25847 1
   26899    25803    25848 1
   26900    25804    25805 1
   26901    25804    25849 1
   26902    25804    25850 1
   26903    25805    25806 1
   26904    25805    25851 1
   26905    25805    25852 1
   26906    25806    25807 1
   26907    25806    25853 1
   26908    25806    25854 1
   26909    25807    25808 1
   26910    25807    25855 1
   26911    25807    25856 1
   26912    25808    25809 1
   26913    25808    25857 1
   26914    25808    25858 1
   26915    25809    25859 1
   26916    25809    25860 1
   26917    25809    25861 1
   26918    25810    25811 1
   26919    25810    25862 1
   26920    25810    25863 1
   26921    25811    25812 1
   26922    25811    25818 1
   26923    25811    25864 1
   26924    25812    25813 1
   26925    25812    25865 1
   26926    25812    25866 1
   26927    25813    25814 1
   26928    25813    25867 1
   26929    25813    25868 1
   26930    25814    25815 1
   26931    25814    25869 1
   26932    25814    25870 1
   26933    25815    25816 1
   26934    25815    25871 1
   26935    25815    25872 1
   26936    25816    25817 1
   26937    25816    25873 1
   26938    25816    25874 1
   26939    25817    25875 1
   26940    25817    25876 1
   26941    25817    25877 1
   26942    25818    25819 1
   26943    25818    25878 1
   26944    25818    25879 1
   26945    25819    25820 1
   26946    25819    25880 1
   26947    25819    25881 1
   26948    25820    25821 1
   26949    25820    25882 1
   26950    25820    25883 1
   26951    25821    25822 1
   26952    25821    25884 1
   26953    25821    25885 1
   26954    25822    25823 1
   26955    25822    25886 1
   26956    25822    25887 1
   26957    25823    25824 1
   26958    25823    25888 1
   26959    25823    25889 1
   26960    25824    25825 1
   26961    25824    25890 1
   26962    25824    25891 1
   26963    25825    25892 1
   26964    25825    25893 1
   26965    25825    25894 1
   26966    25895    25896 1
   26967    25895    25915 1
   26968    25895    25931 1
   26969    25895    25899 1
   26970    25896    25897 1
   26971    25896    25914 1
   26972    25897    25898 1
   26973    25897    25912 1
   26974    25898    25899 1
   26975    25898    25902 1
   26976    25899    25900 1
   26977    25900    25901 1
   26978    25900    25947 1
   26979    25901    25902 1
   26980    25901    25903 1
   26981    25903    25904 1
   26982    25903    25908 1
   26983    25904    25905 1
   26984    25904    25948 1
   26985    25905    25906 1
   26986    25906    25907 1
   26987    25907    25908 1
   26988    25907    25911 1
   26989    25908    25909 1
   26990    25909    25910 1
   26991    25910    25911 1
   26992    25912    25913 1
   26993    25913    25914 1
   26994    25913    26027 1
   26995    25914    25949 1
   26996    25915    25916 1
   26997    25915    25950 1
   26998    25915    25951 1
   26999    25916    25917 1
   27000    25916    25923 1
   27001    25916    25952 1
   27002    25917    25918 1
   27003    25917    25953 1
   27004    25917    25954 1
   27005    25918    25919 1
   27006    25918    25955 1
   27007    25918    25956 1
   27008    25919    25920 1
   27009    25919    25957 1
   27010    25919    25958 1
   27011    25920    25921 1
   27012    25920    25959 1
   27013    25920    25960 1
   27014    25921    25922 1
   27015    25921    25961 1
   27016    25921    25962 1
   27017    25922    25963 1
   27018    25922    25964 1
   27019    25922    25965 1
   27020    25923    25924 1
   27021    25923    25966 1
   27022    25923    25967 1
   27023    25924    25925 1
   27024    25924    25968 1
   27025    25924    25969 1
   27026    25925    25926 1
   27027    25925    25970 1
   27028    25925    25971 1
   27029    25926    25927 1
   27030    25926    25972 1
   27031    25926    25973 1
   27032    25927    25928 1
   27033    25927    25974 1
   27034    25927    25975 1
   27035    25928    25929 1
   27036    25928    25976 1
   27037    25928    25977 1
   27038    25929    25930 1
   27039    25929    25978 1
   27040    25929    25979 1
   27041    25930    25980 1
   27042    25930    25981 1
   27043    25930    25982 1
   27044    25931    25932 1
   27045    25931    25983 1
   27046    25931    25984 1
   27047    25932    25933 1
   27048    25932    25939 1
   27049    25932    25985 1
   27050    25933    25934 1
   27051    25933    25986 1
   27052    25933    25987 1
   27053    25934    25935 1
   27054    25934    25988 1
   27055    25934    25989 1
   27056    25935    25936 1
   27057    25935    25990 1
   27058    25935    25991 1
   27059    25936    25937 1
   27060    25936    25992 1
   27061    25936    25993 1
   27062    25937    25938 1
   27063    25937    25994 1
   27064    25937    25995 1
   27065    25938    25996 1
   27066    25938    25997 1
   27067    25938    25998 1
   27068    25939    25940 1
   27069    25939    25999 1
   27070    25939    26000 1
   27071    25940    25941 1
   27072    25940    26001 1
   27073    25940    26002 1
   27074    25941    25942 1
   27075    25941    26003 1
   27076    25941    26004 1
   27077    25942    25943 1
   27078    25942    26005 1
   27079    25942    26006 1
   27080    25943    25944 1
   27081    25943    26007 1
   27082    25943    26008 1
   27083    25944    25945 1
   27084    25944    26009 1
   27085    25944    26010 1
   27086    25945    25946 1
   27087    25945    26011 1
   27088    25945    26012 1
   27089    25946    26013 1
   27090    25946    26014 1
   27091    25946    26015 1
   27092    26016    26017 1
   27093    26016    26036 1
   27094    26016    26052 1
   27095    26016    26020 1
   27096    26017    26018 1
   27097    26017    26035 1
   27098    26018    26019 1
   27099    26018    26033 1
   27100    26019    26020 1
   27101    26019    26023 1
   27102    26020    26021 1
   27103    26021    26022 1
   27104    26021    26068 1
   27105    26022    26023 1
   27106    26022    26024 1
   27107    26024    26025 1
   27108    26024    26029 1
   27109    26025    26026 1
   27110    26025    26069 1
   27111    26026    26027 1
   27112    26027    26028 1
   27113    26028    26029 1
   27114    26028    26032 1
   27115    26029    26030 1
   27116    26030    26031 1
   27117    26031    26032 1
   27118    26033    26034 1
   27119    26034    26035 1
   27120    26034    26148 1
   27121    26035    26070 1
   27122    26036    26037 1
   27123    26036    26071 1
   27124    26036    26072 1
   27125    26037    26038 1
   27126    26037    26044 1
   27127    26037    26073 1
   27128    26038    26039 1
   27129    26038    26074 1
   27130    26038    26075 1
   27131    26039    26040 1
   27132    26039    26076 1
   27133    26039    26077 1
   27134    26040    26041 1
   27135    26040    26078 1
   27136    26040    26079 1
   27137    26041    26042 1
   27138    26041    26080 1
   27139    26041    26081 1
   27140    26042    26043 1
   27141    26042    26082 1
   27142    26042    26083 1
   27143    26043    26084 1
   27144    26043    26085 1
   27145    26043    26086 1
   27146    26044    26045 1
   27147    26044    26087 1
   27148    26044    26088 1
   27149    26045    26046 1
   27150    26045    26089 1
   27151    26045    26090 1
   27152    26046    26047 1
   27153    26046    26091 1
   27154    26046    26092 1
   27155    26047    26048 1
   27156    26047    26093 1
   27157    26047    26094 1
   27158    26048    26049 1
   27159    26048    26095 1
   27160    26048    26096 1
   27161    26049    26050 1
   27162    26049    26097 1
   27163    26049    26098 1
   27164    26050    26051 1
   27165    26050    26099 1
   27166    26050    26100 1
   27167    26051    26101 1
   27168    26051    26102 1
   27169    26051    26103 1
   27170    26052    26053 1
   27171    26052    26104 1
   27172    26052    26105 1
   27173    26053    26054 1
   27174    26053    26060 1
   27175    26053    26106 1
   27176    26054    26055 1
   27177    26054    26107 1
   27178    26054    26108 1
   27179    26055    26056 1
   27180    26055    26109 1
   27181    26055    26110 1
   27182    26056    26057 1
   27183    26056    26111 1
   27184    26056    26112 1
   27185    26057    26058 1
   27186    26057    26113 1
   27187    26057    26114 1
   27188    26058    26059 1
   27189    26058    26115 1
   27190    26058    26116 1
   27191    26059    26117 1
   27192    26059    26118 1
   27193    26059    26119 1
   27194    26060    26061 1
   27195    26060    26120 1
   27196    26060    26121 1
   27197    26061    26062 1
   27198    26061    26122 1
   27199    26061    26123 1
   27200    26062    26063 1
   27201    26062    26124 1
   27202    26062    26125 1
   27203    26063    26064 1
   27204    26063    26126 1
   27205    26063    26127 1
   27206    26064    26065 1
   27207    26064    26128 1
   27208    26064    26129 1
   27209    26065    26066 1
   27210    26065    26130 1
   27211    26065    26131 1
   27212    26066    26067 1
   27213    26066    26132 1
   27214    26066    26133 1
   27215    26067    26134 1
   27216    26067    26135 1
   27217    26067    26136 1
   27218    26137    26138 1
   27219    26137    26157 1
   27220    26137    26173 1
   27221    26137    26141 1
   27222    26138    26139 1
   27223    26138    26156 1
   27224    26139    26140 1
   27225    26139    26154 1
   27226    26140    26141 1
   27227    26140    26144 1
   27228    26141    26142 1
   27229    26142    26143 1
   27230    26142    26189 1
   27231    26143    26144 1
   27232    26143    26145 1
   27233    26145    26146 1
   27234    26145    26150 1
   27235    26146    26147 1
   27236    26146    26190 1
   27237    26147    26148 1
   27238    26148    26149 1
   27239    26149    26150 1
   27240    26149    26153 1
   27241    26150    26151 1
   27242    26151    26152 1
   27243    26152    26153 1
   27244    26154    26155 1
   27245    26155    26156 1
   27246    26155    26269 1
   27247    26156    26191 1
   27248    26157    26158 1
   27249    26157    26192 1
   27250    26157    26193 1
   27251    26158    26159 1
   27252    26158    26165 1
   27253    26158    26194 1
   27254    26159    26160 1
   27255    26159    26195 1
   27256    26159    26196 1
   27257    26160    26161 1
   27258    26160    26197 1
   27259    26160    26198 1
   27260    26161    26162 1
   27261    26161    26199 1
   27262    26161    26200 1
   27263    26162    26163 1
   27264    26162    26201 1
   27265    26162    26202 1
   27266    26163    26164 1
   27267    26163    26203 1
   27268    26163    26204 1
   27269    26164    26205 1
   27270    26164    26206 1
   27271    26164    26207 1
   27272    26165    26166 1
   27273    26165    26208 1
   27274    26165    26209 1
   27275    26166    26167 1
   27276    26166    26210 1
   27277    26166    26211 1
   27278    26167    26168 1
   27279    26167    26212 1
   27280    26167    26213 1
   27281    26168    26169 1
   27282    26168    26214 1
   27283    26168    26215 1
   27284    26169    26170 1
   27285    26169    26216 1
   27286    26169    26217 1
   27287    26170    26171 1
   27288    26170    26218 1
   27289    26170    26219 1
   27290    26171    26172 1
   27291    26171    26220 1
   27292    26171    26221 1
   27293    26172    26222 1
   27294    26172    26223 1
   27295    26172    26224 1
   27296    26173    26174 1
   27297    26173    26225 1
   27298    26173    26226 1
   27299    26174    26175 1
   27300    26174    26181 1
   27301    26174    26227 1
   27302    26175    26176 1
   27303    26175    26228 1
   27304    26175    26229 1
   27305    26176    26177 1
   27306    26176    26230 1
   27307    26176    26231 1
   27308    26177    26178 1
   27309    26177    26232 1
   27310    26177    26233 1
   27311    26178    26179 1
   27312    26178    26234 1
   27313    26178    26235 1
   27314    26179    26180 1
   27315    26179    26236 1
   27316    26179    26237 1
   27317    26180    26238 1
   27318    26180    26239 1
   27319    26180    26240 1
   27320    26181    26182 1
   27321    26181    26241 1
   27322    26181    26242 1
   27323    26182    26183 1
   27324    26182    26243 1
   27325    26182    26244 1
   27326    26183    26184 1
   27327    26183    26245 1
   27328    26183    26246 1
   27329    26184    26185 1
   27330    26184    26247 1
   27331    26184    26248 1
   27332    26185    26186 1
   27333    26185    26249 1
   27334    26185    26250 1
   27335    26186    26187 1
   27336    26186    26251 1
   27337    26186    26252 1
   27338    26187    26188 1
   27339    26187    26253 1
   27340    26187    26254 1
   27341    26188    26255 1
   27342    26188    26256 1
   27343    26188    26257 1
   27344    26258    26259 1
   27345    26258    26278 1
   27346    26258    26294 1
   27347    26258    26262 1
   27348    26259    26260 1
   27349    26259    26277 1
   27350    26260    26261 1
   27351    26260    26275 1
   27352    26261    26262 1
   27353    26261    26265 1
   27354    26262    26263 1
   27355    26263    26264 1
   27356    26263    26310 1
   27357    26264    26265 1
   27358    26264    26266 1
   27359    26266    26267 1
   27360    26266    26271 1
   27361    26267    26268 1
   27362    26267    26311 1
   27363    26268    26269 1
   27364    26269    26270 1
   27365    26270    26271 1
   27366    26270    26274 1
   27367    26271    26272 1
   27368    26272    26273 1
   27369    26273    26274 1
   27370    26275    26276 1
   27371    26276    26277 1
   27372    26276    26390 1
   27373    26277    26312 1
   27374    26278    26279 1
   27375    26278    26313 1
   27376    26278    26314 1
   27377    26279    26280 1
   27378    26279    26286 1
   27379    26279    26315 1
   27380    26280    26281 1
   27381    26280    26316 1
   27382    26280    26317 1
   27383    26281    26282 1
   27384    26281    26318 1
   27385    26281    26319 1
   27386    26282    26283 1
   27387    26282    26320 1
   27388    26282    26321 1
   27389    26283    26284 1
   27390    26283    26322 1
   27391    26283    26323 1
   27392    26284    26285 1
   27393    26284    26324 1
   27394    26284    26325 1
   27395    26285    26326 1
   27396    26285    26327 1
   27397    26285    26328 1
   27398    26286    26287 1
   27399    26286    26329 1
   27400    26286    26330 1
   27401    26287    26288 1
   27402    26287    26331 1
   27403    26287    26332 1
   27404    26288    26289 1
   27405    26288    26333 1
   27406    26288    26334 1
   27407    26289    26290 1
   27408    26289    26335 1
   27409    26289    26336 1
   27410    26290    26291 1
   27411    26290    26337 1
   27412    26290    26338 1
   27413    26291    26292 1
   27414    26291    26339 1
   27415    26291    26340 1
   27416    26292    26293 1
   27417    26292    26341 1
   27418    26292    26342 1
   27419    26293    26343 1
   27420    26293    26344 1
   27421    26293    26345 1
   27422    26294    26295 1
   27423    26294    26346 1
   27424    26294    26347 1
   27425    26295    26296 1
   27426    26295    26302 1
   27427    26295    26348 1
   27428    26296    26297 1
   27429    26296    26349 1
   27430    26296    26350 1
   27431    26297    26298 1
   27432    26297    26351 1
   27433    26297    26352 1
   27434    26298    26299 1
   27435    26298    26353 1
   27436    26298    26354 1
   27437    26299    26300 1
   27438    26299    26355 1
   27439    26299    26356 1
   27440    26300    26301 1
   27441    26300    26357 1
   27442    26300    26358 1
   27443    26301    26359 1
   27444    26301    26360 1
   27445    26301    26361 1
   27446    26302    26303 1
   27447    26302    26362 1
   27448    26302    26363 1
   27449    26303    26304 1
   27450    26303    26364 1
   27451    26303    26365 1
   27452    26304    26305 1
   27453    26304    26366 1
   27454    26304    26367 1
   27455    26305    26306 1
   27456    26305    26368 1
   27457    26305    26369 1
   27458    26306    26307 1
   27459    26306    26370 1
   27460    26306    26371 1
   27461    26307    26308 1
   27462    26307    26372 1
   27463    26307    26373 1
   27464    26308    26309 1
   27465    26308    26374 1
   27466    26308    26375 1
   27467    26309    26376 1
   27468    26309    26377 1
   27469    26309    26378 1
   27470    26379    26380 1
   27471    26379    26399 1
   27472    26379    26415 1
   27473    26379    26383 1
   27474    26380    26381 1
   27475    26380    26398 1
   27476    26381    26382 1
   27477    26381    26396 1
   27478    26382    26383 1
   27479    26382    26386 1
   27480    26383    26384 1
   27481    26384    26385 1
   27482    26384    26431 1
   27483    26385    26386 1
   27484    26385    26387 1
   27485    26387    26388 1
   27486    26387    26392 1
   27487    26388    26389 1
   27488    26388    26432 1
   27489    26389    26390 1
   27490    26390    26391 1
   27491    26391    26392 1
   27492    26391    26395 1
   27493    26392    26393 1
   27494    26393    26394 1
   27495    26394    26395 1
   27496    26396    26397 1
   27497    26397    26398 1
   27498    26397    26511 1
   27499    26398    26433 1
   27500    26399    26400 1
   27501    26399    26434 1
   27502    26399    26435 1
   27503    26400    26401 1
   27504    26400    26407 1
   27505    26400    26436 1
   27506    26401    26402 1
   27507    26401    26437 1
   27508    26401    26438 1
   27509    26402    26403 1
   27510    26402    26439 1
   27511    26402    26440 1
   27512    26403    26404 1
   27513    26403    26441 1
   27514    26403    26442 1
   27515    26404    26405 1
   27516    26404    26443 1
   27517    26404    26444 1
   27518    26405    26406 1
   27519    26405    26445 1
   27520    26405    26446 1
   27521    26406    26447 1
   27522    26406    26448 1
   27523    26406    26449 1
   27524    26407    26408 1
   27525    26407    26450 1
   27526    26407    26451 1
   27527    26408    26409 1
   27528    26408    26452 1
   27529    26408    26453 1
   27530    26409    26410 1
   27531    26409    26454 1
   27532    26409    26455 1
   27533    26410    26411 1
   27534    26410    26456 1
   27535    26410    26457 1
   27536    26411    26412 1
   27537    26411    26458 1
   27538    26411    26459 1
   27539    26412    26413 1
   27540    26412    26460 1
   27541    26412    26461 1
   27542    26413    26414 1
   27543    26413    26462 1
   27544    26413    26463 1
   27545    26414    26464 1
   27546    26414    26465 1
   27547    26414    26466 1
   27548    26415    26416 1
   27549    26415    26467 1
   27550    26415    26468 1
   27551    26416    26417 1
   27552    26416    26423 1
   27553    26416    26469 1
   27554    26417    26418 1
   27555    26417    26470 1
   27556    26417    26471 1
   27557    26418    26419 1
   27558    26418    26472 1
   27559    26418    26473 1
   27560    26419    26420 1
   27561    26419    26474 1
   27562    26419    26475 1
   27563    26420    26421 1
   27564    26420    26476 1
   27565    26420    26477 1
   27566    26421    26422 1
   27567    26421    26478 1
   27568    26421    26479 1
   27569    26422    26480 1
   27570    26422    26481 1
   27571    26422    26482 1
   27572    26423    26424 1
   27573    26423    26483 1
   27574    26423    26484 1
   27575    26424    26425 1
   27576    26424    26485 1
   27577    26424    26486 1
   27578    26425    26426 1
   27579    26425    26487 1
   27580    26425    26488 1
   27581    26426    26427 1
   27582    26426    26489 1
   27583    26426    26490 1
   27584    26427    26428 1
   27585    26427    26491 1
   27586    26427    26492 1
   27587    26428    26429 1
   27588    26428    26493 1
   27589    26428    26494 1
   27590    26429    26430 1
   27591    26429    26495 1
   27592    26429    26496 1
   27593    26430    26497 1
   27594    26430    26498 1
   27595    26430    26499 1
   27596    26500    26501 1
   27597    26500    26520 1
   27598    26500    26536 1
   27599    26500    26504 1
   27600    26501    26502 1
   27601    26501    26519 1
   27602    26502    26503 1
   27603    26502    26517 1
   27604    26503    26504 1
   27605    26503    26507 1
   27606    26504    26505 1
   27607    26505    26506 1
   27608    26505    26552 1
   27609    26506    26507 1
   27610    26506    26508 1
   27611    26508    26509 1
   27612    26508    26513 1
   27613    26509    26510 1
   27614    26509    26553 1
   27615    26510    26511 1
   27616    26511    26512 1
   27617    26512    26513 1
   27618    26512    26516 1
   27619    26513    26514 1
   27620    26514    26515 1
   27621    26515    26516 1
   27622    26517    26518 1
   27623    26518    26519 1
   27624    26518    26632 1
   27625    26519    26554 1
   27626    26520    26521 1
   27627    26520    26555 1
   27628    26520    26556 1
   27629    26521    26522 1
   27630    26521    26528 1
   27631    26521    26557 1
   27632    26522    26523 1
   27633    26522    26558 1
   27634    26522    26559 1
   27635    26523    26524 1
   27636    26523    26560 1
   27637    26523    26561 1
   27638    26524    26525 1
   27639    26524    26562 1
   27640    26524    26563 1
   27641    26525    26526 1
   27642    26525    26564 1
   27643    26525    26565 1
   27644    26526    26527 1
   27645    26526    26566 1
   27646    26526    26567 1
   27647    26527    26568 1
   27648    26527    26569 1
   27649    26527    26570 1
   27650    26528    26529 1
   27651    26528    26571 1
   27652    26528    26572 1
   27653    26529    26530 1
   27654    26529    26573 1
   27655    26529    26574 1
   27656    26530    26531 1
   27657    26530    26575 1
   27658    26530    26576 1
   27659    26531    26532 1
   27660    26531    26577 1
   27661    26531    26578 1
   27662    26532    26533 1
   27663    26532    26579 1
   27664    26532    26580 1
   27665    26533    26534 1
   27666    26533    26581 1
   27667    26533    26582 1
   27668    26534    26535 1
   27669    26534    26583 1
   27670    26534    26584 1
   27671    26535    26585 1
   27672    26535    26586 1
   27673    26535    26587 1
   27674    26536    26537 1
   27675    26536    26588 1
   27676    26536    26589 1
   27677    26537    26538 1
   27678    26537    26544 1
   27679    26537    26590 1
   27680    26538    26539 1
   27681    26538    26591 1
   27682    26538    26592 1
   27683    26539    26540 1
   27684    26539    26593 1
   27685    26539    26594 1
   27686    26540    26541 1
   27687    26540    26595 1
   27688    26540    26596 1
   27689    26541    26542 1
   27690    26541    26597 1
   27691    26541    26598 1
   27692    26542    26543 1
   27693    26542    26599 1
   27694    26542    26600 1
   27695    26543    26601 1
   27696    26543    26602 1
   27697    26543    26603 1
   27698    26544    26545 1
   27699    26544    26604 1
   27700    26544    26605 1
   27701    26545    26546 1
   27702    26545    26606 1
   27703    26545    26607 1
   27704    26546    26547 1
   27705    26546    26608 1
   27706    26546    26609 1
   27707    26547    26548 1
   27708    26547    26610 1
   27709    26547    26611 1
   27710    26548    26549 1
   27711    26548    26612 1
   27712    26548    26613 1
   27713    26549    26550 1
   27714    26549    26614 1
   27715    26549    26615 1
   27716    26550    26551 1
   27717    26550    26616 1
   27718    26550    26617 1
   27719    26551    26618 1
   27720    26551    26619 1
   27721    26551    26620 1
   27722    26621    26622 1
   27723    26621    26641 1
   27724    26621    26657 1
   27725    26621    26625 1
   27726    26622    26623 1
   27727    26622    26640 1
   27728    26623    26624 1
   27729    26623    26638 1
   27730    26624    26625 1
   27731    26624    26628 1
   27732    26625    26626 1
   27733    26626    26627 1
   27734    26626    26673 1
   27735    26627    26628 1
   27736    26627    26629 1
   27737    26629    26630 1
   27738    26629    26634 1
   27739    26630    26631 1
   27740    26630    26674 1
   27741    26631    26632 1
   27742    26632    26633 1
   27743    26633    26634 1
   27744    26633    26637 1
   27745    26634    26635 1
   27746    26635    26636 1
   27747    26636    26637 1
   27748    26638    26639 1
   27749    26639    26640 1
   27750    26639    26753 1
   27751    26640    26675 1
   27752    26641    26642 1
   27753    26641    26676 1
   27754    26641    26677 1
   27755    26642    26643 1
   27756    26642    26649 1
   27757    26642    26678 1
   27758    26643    26644 1
   27759    26643    26679 1
   27760    26643    26680 1
   27761    26644    26645 1
   27762    26644    26681 1
   27763    26644    26682 1
   27764    26645    26646 1
   27765    26645    26683 1
   27766    26645    26684 1
   27767    26646    26647 1
   27768    26646    26685 1
   27769    26646    26686 1
   27770    26647    26648 1
   27771    26647    26687 1
   27772    26647    26688 1
   27773    26648    26689 1
   27774    26648    26690 1
   27775    26648    26691 1
   27776    26649    26650 1
   27777    26649    26692 1
   27778    26649    26693 1
   27779    26650    26651 1
   27780    26650    26694 1
   27781    26650    26695 1
   27782    26651    26652 1
   27783    26651    26696 1
   27784    26651    26697 1
   27785    26652    26653 1
   27786    26652    26698 1
   27787    26652    26699 1
   27788    26653    26654 1
   27789    26653    26700 1
   27790    26653    26701 1
   27791    26654    26655 1
   27792    26654    26702 1
   27793    26654    26703 1
   27794    26655    26656 1
   27795    26655    26704 1
   27796    26655    26705 1
   27797    26656    26706 1
   27798    26656    26707 1
   27799    26656    26708 1
   27800    26657    26658 1
   27801    26657    26709 1
   27802    26657    26710 1
   27803    26658    26659 1
   27804    26658    26665 1
   27805    26658    26711 1
   27806    26659    26660 1
   27807    26659    26712 1
   27808    26659    26713 1
   27809    26660    26661 1
   27810    26660    26714 1
   27811    26660    26715 1
   27812    26661    26662 1
   27813    26661    26716 1
   27814    26661    26717 1
   27815    26662    26663 1
   27816    26662    26718 1
   27817    26662    26719 1
   27818    26663    26664 1
   27819    26663    26720 1
   27820    26663    26721 1
   27821    26664    26722 1
   27822    26664    26723 1
   27823    26664    26724 1
   27824    26665    26666 1
   27825    26665    26725 1
   27826    26665    26726 1
   27827    26666    26667 1
   27828    26666    26727 1
   27829    26666    26728 1
   27830    26667    26668 1
   27831    26667    26729 1
   27832    26667    26730 1
   27833    26668    26669 1
   27834    26668    26731 1
   27835    26668    26732 1
   27836    26669    26670 1
   27837    26669    26733 1
   27838    26669    26734 1
   27839    26670    26671 1
   27840    26670    26735 1
   27841    26670    26736 1
   27842    26671    26672 1
   27843    26671    26737 1
   27844    26671    26738 1
   27845    26672    26739 1
   27846    26672    26740 1
   27847    26672    26741 1
   27848    26742    26743 1
   27849    26742    26762 1
   27850    26742    26778 1
   27851    26742    26746 1
   27852    26743    26744 1
   27853    26743    26761 1
   27854    26744    26745 1
   27855    26744    26759 1
   27856    26745    26746 1
   27857    26745    26749 1
   27858    26746    26747 1
   27859    26747    26748 1
   27860    26747    26794 1
   27861    26748    26749 1
   27862    26748    26750 1
   27863    26750    26751 1
   27864    26750    26755 1
   27865    26751    26752 1
   27866    26751    26795 1
   27867    26752    26753 1
   27868    26753    26754 1
   27869    26754    26755 1
   27870    26754    26758 1
   27871    26755    26756 1
   27872    26756    26757 1
   27873    26757    26758 1
   27874    26759    26760 1
   27875    26760    26761 1
   27876    26760    26874 1
   27877    26761    26796 1
   27878    26762    26763 1
   27879    26762    26797 1
   27880    26762    26798 1
   27881    26763    26764 1
   27882    26763    26770 1
   27883    26763    26799 1
   27884    26764    26765 1
   27885    26764    26800 1
   27886    26764    26801 1
   27887    26765    26766 1
   27888    26765    26802 1
   27889    26765    26803 1
   27890    26766    26767 1
   27891    26766    26804 1
   27892    26766    26805 1
   27893    26767    26768 1
   27894    26767    26806 1
   27895    26767    26807 1
   27896    26768    26769 1
   27897    26768    26808 1
   27898    26768    26809 1
   27899    26769    26810 1
   27900    26769    26811 1
   27901    26769    26812 1
   27902    26770    26771 1
   27903    26770    26813 1
   27904    26770    26814 1
   27905    26771    26772 1
   27906    26771    26815 1
   27907    26771    26816 1
   27908    26772    26773 1
   27909    26772    26817 1
   27910    26772    26818 1
   27911    26773    26774 1
   27912    26773    26819 1
   27913    26773    26820 1
   27914    26774    26775 1
   27915    26774    26821 1
   27916    26774    26822 1
   27917    26775    26776 1
   27918    26775    26823 1
   27919    26775    26824 1
   27920    26776    26777 1
   27921    26776    26825 1
   27922    26776    26826 1
   27923    26777    26827 1
   27924    26777    26828 1
   27925    26777    26829 1
   27926    26778    26779 1
   27927    26778    26830 1
   27928    26778    26831 1
   27929    26779    26780 1
   27930    26779    26786 1
   27931    26779    26832 1
   27932    26780    26781 1
   27933    26780    26833 1
   27934    26780    26834 1
   27935    26781    26782 1
   27936    26781    26835 1
   27937    26781    26836 1
   27938    26782    26783 1
   27939    26782    26837 1
   27940    26782    26838 1
   27941    26783    26784 1
   27942    26783    26839 1
   27943    26783    26840 1
   27944    26784    26785 1
   27945    26784    26841 1
   27946    26784    26842 1
   27947    26785    26843 1
   27948    26785    26844 1
   27949    26785    26845 1
   27950    26786    26787 1
   27951    26786    26846 1
   27952    26786    26847 1
   27953    26787    26788 1
   27954    26787    26848 1
   27955    26787    26849 1
   27956    26788    26789 1
   27957    26788    26850 1
   27958    26788    26851 1
   27959    26789    26790 1
   27960    26789    26852 1
   27961    26789    26853 1
   27962    26790    26791 1
   27963    26790    26854 1
   27964    26790    26855 1
   27965    26791    26792 1
   27966    26791    26856 1
   27967    26791    26857 1
   27968    26792    26793 1
   27969    26792    26858 1
   27970    26792    26859 1
   27971    26793    26860 1
   27972    26793    26861 1
   27973    26793    26862 1
   27974    26863    26864 1
   27975    26863    26883 1
   27976    26863    26899 1
   27977    26863    26867 1
   27978    26864    26865 1
   27979    26864    26882 1
   27980    26865    26866 1
   27981    26865    26880 1
   27982    26866    26867 1
   27983    26866    26870 1
   27984    26867    26868 1
   27985    26868    26869 1
   27986    26868    26915 1
   27987    26869    26870 1
   27988    26869    26871 1
   27989    26871    26872 1
   27990    26871    26876 1
   27991    26872    26873 1
   27992    26872    26916 1
   27993    26873    26874 1
   27994    26874    26875 1
   27995    26875    26876 1
   27996    26875    26879 1
   27997    26876    26877 1
   27998    26877    26878 1
   27999    26878    26879 1
   28000    26880    26881 1
   28001    26881    26882 1
   28002    26881    26995 1
   28003    26882    26917 1
   28004    26883    26884 1
   28005    26883    26918 1
   28006    26883    26919 1
   28007    26884    26885 1
   28008    26884    26891 1
   28009    26884    26920 1
   28010    26885    26886 1
   28011    26885    26921 1
   28012    26885    26922 1
   28013    26886    26887 1
   28014    26886    26923 1
   28015    26886    26924 1
   28016    26887    26888 1
   28017    26887    26925 1
   28018    26887    26926 1
   28019    26888    26889 1
   28020    26888    26927 1
   28021    26888    26928 1
   28022    26889    26890 1
   28023    26889    26929 1
   28024    26889    26930 1
   28025    26890    26931 1
   28026    26890    26932 1
   28027    26890    26933 1
   28028    26891    26892 1
   28029    26891    26934 1
   28030    26891    26935 1
   28031    26892    26893 1
   28032    26892    26936 1
   28033    26892    26937 1
   28034    26893    26894 1
   28035    26893    26938 1
   28036    26893    26939 1
   28037    26894    26895 1
   28038    26894    26940 1
   28039    26894    26941 1
   28040    26895    26896 1
   28041    26895    26942 1
   28042    26895    26943 1
   28043    26896    26897 1
   28044    26896    26944 1
   28045    26896    26945 1
   28046    26897    26898 1
   28047    26897    26946 1
   28048    26897    26947 1
   28049    26898    26948 1
   28050    26898    26949 1
   28051    26898    26950 1
   28052    26899    26900 1
   28053    26899    26951 1
   28054    26899    26952 1
   28055    26900    26901 1
   28056    26900    26907 1
   28057    26900    26953 1
   28058    26901    26902 1
   28059    26901    26954 1
   28060    26901    26955 1
   28061    26902    26903 1
   28062    26902    26956 1
   28063    26902    26957 1
   28064    26903    26904 1
   28065    26903    26958 1
   28066    26903    26959 1
   28067    26904    26905 1
   28068    26904    26960 1
   28069    26904    26961 1
   28070    26905    26906 1
   28071    26905    26962 1
   28072    26905    26963 1
   28073    26906    26964 1
   28074    26906    26965 1
   28075    26906    26966 1
   28076    26907    26908 1
   28077    26907    26967 1
   28078    26907    26968 1
   28079    26908    26909 1
   28080    26908    26969 1
   28081    26908    26970 1
   28082    26909    26910 1
   28083    26909    26971 1
   28084    26909    26972 1
   28085    26910    26911 1
   28086    26910    26973 1
   28087    26910    26974 1
   28088    26911    26912 1
   28089    26911    26975 1
   28090    26911    26976 1
   28091    26912    26913 1
   28092    26912    26977 1
   28093    26912    26978 1
   28094    26913    26914 1
   28095    26913    26979 1
   28096    26913    26980 1
   28097    26914    26981 1
   28098    26914    26982 1
   28099    26914    26983 1
   28100    26984    26985 1
   28101    26984    27004 1
   28102    26984    27020 1
   28103    26984    26988 1
   28104    26985    26986 1
   28105    26985    27003 1
   28106    26986    26987 1
   28107    26986    27001 1
   28108    26987    26988 1
   28109    26987    26991 1
   28110    26988    26989 1
   28111    26989    26990 1
   28112    26989    27036 1
   28113    26990    26991 1
   28114    26990    26992 1
   28115    26992    26993 1
   28116    26992    26997 1
   28117    26993    26994 1
   28118    26993    27037 1
   28119    26994    26995 1
   28120    26995    26996 1
   28121    26996    26997 1
   28122    26996    27000 1
   28123    26997    26998 1
   28124    26998    26999 1
   28125    26999    27000 1
   28126    27001    27002 1
   28127    27002    27003 1
   28128    27002    27116 1
   28129    27003    27038 1
   28130    27004    27005 1
   28131    27004    27039 1
   28132    27004    27040 1
   28133    27005    27006 1
   28134    27005    27012 1
   28135    27005    27041 1
   28136    27006    27007 1
   28137    27006    27042 1
   28138    27006    27043 1
   28139    27007    27008 1
   28140    27007    27044 1
   28141    27007    27045 1
   28142    27008    27009 1
   28143    27008    27046 1
   28144    27008    27047 1
   28145    27009    27010 1
   28146    27009    27048 1
   28147    27009    27049 1
   28148    27010    27011 1
   28149    27010    27050 1
   28150    27010    27051 1
   28151    27011    27052 1
   28152    27011    27053 1
   28153    27011    27054 1
   28154    27012    27013 1
   28155    27012    27055 1
   28156    27012    27056 1
   28157    27013    27014 1
   28158    27013    27057 1
   28159    27013    27058 1
   28160    27014    27015 1
   28161    27014    27059 1
   28162    27014    27060 1
   28163    27015    27016 1
   28164    27015    27061 1
   28165    27015    27062 1
   28166    27016    27017 1
   28167    27016    27063 1
   28168    27016    27064 1
   28169    27017    27018 1
   28170    27017    27065 1
   28171    27017    27066 1
   28172    27018    27019 1
   28173    27018    27067 1
   28174    27018    27068 1
   28175    27019    27069 1
   28176    27019    27070 1
   28177    27019    27071 1
   28178    27020    27021 1
   28179    27020    27072 1
   28180    27020    27073 1
   28181    27021    27022 1
   28182    27021    27028 1
   28183    27021    27074 1
   28184    27022    27023 1
   28185    27022    27075 1
   28186    27022    27076 1
   28187    27023    27024 1
   28188    27023    27077 1
   28189    27023    27078 1
   28190    27024    27025 1
   28191    27024    27079 1
   28192    27024    27080 1
   28193    27025    27026 1
   28194    27025    27081 1
   28195    27025    27082 1
   28196    27026    27027 1
   28197    27026    27083 1
   28198    27026    27084 1
   28199    27027    27085 1
   28200    27027    27086 1
   28201    27027    27087 1
   28202    27028    27029 1
   28203    27028    27088 1
   28204    27028    27089 1
   28205    27029    27030 1
   28206    27029    27090 1
   28207    27029    27091 1
   28208    27030    27031 1
   28209    27030    27092 1
   28210    27030    27093 1
   28211    27031    27032 1
   28212    27031    27094 1
   28213    27031    27095 1
   28214    27032    27033 1
   28215    27032    27096 1
   28216    27032    27097 1
   28217    27033    27034 1
   28218    27033    27098 1
   28219    27033    27099 1
   28220    27034    27035 1
   28221    27034    27100 1
   28222    27034    27101 1
   28223    27035    27102 1
   28224    27035    27103 1
   28225    27035    27104 1
   28226    27105    27106 1
   28227    27105    27125 1
   28228    27105    27141 1
   28229    27105    27109 1
   28230    27106    27107 1
   28231    27106    27124 1
   28232    27107    27108 1
   28233    27107    27122 1
   28234    27108    27109 1
   28235    27108    27112 1
   28236    27109    27110 1
   28237    27110    27111 1
   28238    27110    27157 1
   28239    27111    27112 1
   28240    27111    27113 1
   28241    27113    27114 1
   28242    27113    27118 1
   28243    27114    27115 1
   28244    27114    27158 1
   28245    27115    27116 1
   28246    27116    27117 1
   28247    27117    27118 1
   28248    27117    27121 1
   28249    27118    27119 1
   28250    27119    27120 1
   28251    27120    27121 1
   28252    27122    27123 1
   28253    27123    27124 1
   28254    27123    27237 1
   28255    27124    27159 1
   28256    27125    27126 1
   28257    27125    27160 1
   28258    27125    27161 1
   28259    27126    27127 1
   28260    27126    27133 1
   28261    27126    27162 1
   28262    27127    27128 1
   28263    27127    27163 1
   28264    27127    27164 1
   28265    27128    27129 1
   28266    27128    27165 1
   28267    27128    27166 1
   28268    27129    27130 1
   28269    27129    27167 1
   28270    27129    27168 1
   28271    27130    27131 1
   28272    27130    27169 1
   28273    27130    27170 1
   28274    27131    27132 1
   28275    27131    27171 1
   28276    27131    27172 1
   28277    27132    27173 1
   28278    27132    27174 1
   28279    27132    27175 1
   28280    27133    27134 1
   28281    27133    27176 1
   28282    27133    27177 1
   28283    27134    27135 1
   28284    27134    27178 1
   28285    27134    27179 1
   28286    27135    27136 1
   28287    27135    27180 1
   28288    27135    27181 1
   28289    27136    27137 1
   28290    27136    27182 1
   28291    27136    27183 1
   28292    27137    27138 1
   28293    27137    27184 1
   28294    27137    27185 1
   28295    27138    27139 1
   28296    27138    27186 1
   28297    27138    27187 1
   28298    27139    27140 1
   28299    27139    27188 1
   28300    27139    27189 1
   28301    27140    27190 1
   28302    27140    27191 1
   28303    27140    27192 1
   28304    27141    27142 1
   28305    27141    27193 1
   28306    27141    27194 1
   28307    27142    27143 1
   28308    27142    27149 1
   28309    27142    27195 1
   28310    27143    27144 1
   28311    27143    27196 1
   28312    27143    27197 1
   28313    27144    27145 1
   28314    27144    27198 1
   28315    27144    27199 1
   28316    27145    27146 1
   28317    27145    27200 1
   28318    27145    27201 1
   28319    27146    27147 1
   28320    27146    27202 1
   28321    27146    27203 1
   28322    27147    27148 1
   28323    27147    27204 1
   28324    27147    27205 1
   28325    27148    27206 1
   28326    27148    27207 1
   28327    27148    27208 1
   28328    27149    27150 1
   28329    27149    27209 1
   28330    27149    27210 1
   28331    27150    27151 1
   28332    27150    27211 1
   28333    27150    27212 1
   28334    27151    27152 1
   28335    27151    27213 1
   28336    27151    27214 1
   28337    27152    27153 1
   28338    27152    27215 1
   28339    27152    27216 1
   28340    27153    27154 1
   28341    27153    27217 1
   28342    27153    27218 1
   28343    27154    27155 1
   28344    27154    27219 1
   28345    27154    27220 1
   28346    27155    27156 1
   28347    27155    27221 1
   28348    27155    27222 1
   28349    27156    27223 1
   28350    27156    27224 1
   28351    27156    27225 1
   28352    27226    27227 1
   28353    27226    27246 1
   28354    27226    27262 1
   28355    27226    27230 1
   28356    27227    27228 1
   28357    27227    27245 1
   28358    27228    27229 1
   28359    27228    27243 1
   28360    27229    27230 1
   28361    27229    27233 1
   28362    27230    27231 1
   28363    27231    27232 1
   28364    27231    27278 1
   28365    27232    27233 1
   28366    27232    27234 1
   28367    27234    27235 1
   28368    27234    27239 1
   28369    27235    27236 1
   28370    27235    27279 1
   28371    27236    27237 1
   28372    27237    27238 1
   28373    27238    27239 1
   28374    27238    27242 1
   28375    27239    27240 1
   28376    27240    27241 1
   28377    27241    27242 1
   28378    27243    27244 1
   28379    27244    27245 1
   28380    27244    27358 1
   28381    27245    27280 1
   28382    27246    27247 1
   28383    27246    27281 1
   28384    27246    27282 1
   28385    27247    27248 1
   28386    27247    27254 1
   28387    27247    27283 1
   28388    27248    27249 1
   28389    27248    27284 1
   28390    27248    27285 1
   28391    27249    27250 1
   28392    27249    27286 1
   28393    27249    27287 1
   28394    27250    27251 1
   28395    27250    27288 1
   28396    27250    27289 1
   28397    27251    27252 1
   28398    27251    27290 1
   28399    27251    27291 1
   28400    27252    27253 1
   28401    27252    27292 1
   28402    27252    27293 1
   28403    27253    27294 1
   28404    27253    27295 1
   28405    27253    27296 1
   28406    27254    27255 1
   28407    27254    27297 1
   28408    27254    27298 1
   28409    27255    27256 1
   28410    27255    27299 1
   28411    27255    27300 1
   28412    27256    27257 1
   28413    27256    27301 1
   28414    27256    27302 1
   28415    27257    27258 1
   28416    27257    27303 1
   28417    27257    27304 1
   28418    27258    27259 1
   28419    27258    27305 1
   28420    27258    27306 1
   28421    27259    27260 1
   28422    27259    27307 1
   28423    27259    27308 1
   28424    27260    27261 1
   28425    27260    27309 1
   28426    27260    27310 1
   28427    27261    27311 1
   28428    27261    27312 1
   28429    27261    27313 1
   28430    27262    27263 1
   28431    27262    27314 1
   28432    27262    27315 1
   28433    27263    27264 1
   28434    27263    27270 1
   28435    27263    27316 1
   28436    27264    27265 1
   28437    27264    27317 1
   28438    27264    27318 1
   28439    27265    27266 1
   28440    27265    27319 1
   28441    27265    27320 1
   28442    27266    27267 1
   28443    27266    27321 1
   28444    27266    27322 1
   28445    27267    27268 1
   28446    27267    27323 1
   28447    27267    27324 1
   28448    27268    27269 1
   28449    27268    27325 1
   28450    27268    27326 1
   28451    27269    27327 1
   28452    27269    27328 1
   28453    27269    27329 1
   28454    27270    27271 1
   28455    27270    27330 1
   28456    27270    27331 1
   28457    27271    27272 1
   28458    27271    27332 1
   28459    27271    27333 1
   28460    27272    27273 1
   28461    27272    27334 1
   28462    27272    27335 1
   28463    27273    27274 1
   28464    27273    27336 1
   28465    27273    27337 1
   28466    27274    27275 1
   28467    27274    27338 1
   28468    27274    27339 1
   28469    27275    27276 1
   28470    27275    27340 1
   28471    27275    27341 1
   28472    27276    27277 1
   28473    27276    27342 1
   28474    27276    27343 1
   28475    27277    27344 1
   28476    27277    27345 1
   28477    27277    27346 1
   28478    27347    27348 1
   28479    27347    27367 1
   28480    27347    27383 1
   28481    27347    27351 1
   28482    27348    27349 1
   28483    27348    27366 1
   28484    27349    27350 1
   28485    27349    27364 1
   28486    27350    27351 1
   28487    27350    27354 1
   28488    27351    27352 1
   28489    27352    27353 1
   28490    27352    27399 1
   28491    27353    27354 1
   28492    27353    27355 1
   28493    27355    27356 1
   28494    27355    27360 1
   28495    27356    27357 1
   28496    27356    27400 1
   28497    27357    27358 1
   28498    27358    27359 1
   28499    27359    27360 1
   28500    27359    27363 1
   28501    27360    27361 1
   28502    27361    27362 1
   28503    27362    27363 1
   28504    27364    27365 1
   28505    27365    27366 1
   28506    27365    27479 1
   28507    27366    27401 1
   28508    27367    27368 1
   28509    27367    27402 1
   28510    27367    27403 1
   28511    27368    27369 1
   28512    27368    27375 1
   28513    27368    27404 1
   28514    27369    27370 1
   28515    27369    27405 1
   28516    27369    27406 1
   28517    27370    27371 1
   28518    27370    27407 1
   28519    27370    27408 1
   28520    27371    27372 1
   28521    27371    27409 1
   28522    27371    27410 1
   28523    27372    27373 1
   28524    27372    27411 1
   28525    27372    27412 1
   28526    27373    27374 1
   28527    27373    27413 1
   28528    27373    27414 1
   28529    27374    27415 1
   28530    27374    27416 1
   28531    27374    27417 1
   28532    27375    27376 1
   28533    27375    27418 1
   28534    27375    27419 1
   28535    27376    27377 1
   28536    27376    27420 1
   28537    27376    27421 1
   28538    27377    27378 1
   28539    27377    27422 1
   28540    27377    27423 1
   28541    27378    27379 1
   28542    27378    27424 1
   28543    27378    27425 1
   28544    27379    27380 1
   28545    27379    27426 1
   28546    27379    27427 1
   28547    27380    27381 1
   28548    27380    27428 1
   28549    27380    27429 1
   28550    27381    27382 1
   28551    27381    27430 1
   28552    27381    27431 1
   28553    27382    27432 1
   28554    27382    27433 1
   28555    27382    27434 1
   28556    27383    27384 1
   28557    27383    27435 1
   28558    27383    27436 1
   28559    27384    27385 1
   28560    27384    27391 1
   28561    27384    27437 1
   28562    27385    27386 1
   28563    27385    27438 1
   28564    27385    27439 1
   28565    27386    27387 1
   28566    27386    27440 1
   28567    27386    27441 1
   28568    27387    27388 1
   28569    27387    27442 1
   28570    27387    27443 1
   28571    27388    27389 1
   28572    27388    27444 1
   28573    27388    27445 1
   28574    27389    27390 1
   28575    27389    27446 1
   28576    27389    27447 1
   28577    27390    27448 1
   28578    27390    27449 1
   28579    27390    27450 1
   28580    27391    27392 1
   28581    27391    27451 1
   28582    27391    27452 1
   28583    27392    27393 1
   28584    27392    27453 1
   28585    27392    27454 1
   28586    27393    27394 1
   28587    27393    27455 1
   28588    27393    27456 1
   28589    27394    27395 1
   28590    27394    27457 1
   28591    27394    27458 1
   28592    27395    27396 1
   28593    27395    27459 1
   28594    27395    27460 1
   28595    27396    27397 1
   28596    27396    27461 1
   28597    27396    27462 1
   28598    27397    27398 1
   28599    27397    27463 1
   28600    27397    27464 1
   28601    27398    27465 1
   28602    27398    27466 1
   28603    27398    27467 1
   28604    27468    27469 1
   28605    27468    27488 1
   28606    27468    27504 1
   28607    27468    27472 1
   28608    27469    27470 1
   28609    27469    27487 1
   28610    27470    27471 1
   28611    27470    27485 1
   28612    27471    27472 1
   28613    27471    27475 1
   28614    27472    27473 1
   28615    27473    27474 1
   28616    27473    27520 1
   28617    27474    27475 1
   28618    27474    27476 1
   28619    27476    27477 1
   28620    27476    27481 1
   28621    27477    27478 1
   28622    27477    27521 1
   28623    27478    27479 1
   28624    27479    27480 1
   28625    27480    27481 1
   28626    27480    27484 1
   28627    27481    27482 1
   28628    27482    27483 1
   28629    27483    27484 1
   28630    27485    27486 1
   28631    27486    27487 1
   28632    27486    27600 1
   28633    27487    27522 1
   28634    27488    27489 1
   28635    27488    27523 1
   28636    27488    27524 1
   28637    27489    27490 1
   28638    27489    27496 1
   28639    27489    27525 1
   28640    27490    27491 1
   28641    27490    27526 1
   28642    27490    27527 1
   28643    27491    27492 1
   28644    27491    27528 1
   28645    27491    27529 1
   28646    27492    27493 1
   28647    27492    27530 1
   28648    27492    27531 1
   28649    27493    27494 1
   28650    27493    27532 1
   28651    27493    27533 1
   28652    27494    27495 1
   28653    27494    27534 1
   28654    27494    27535 1
   28655    27495    27536 1
   28656    27495    27537 1
   28657    27495    27538 1
   28658    27496    27497 1
   28659    27496    27539 1
   28660    27496    27540 1
   28661    27497    27498 1
   28662    27497    27541 1
   28663    27497    27542 1
   28664    27498    27499 1
   28665    27498    27543 1
   28666    27498    27544 1
   28667    27499    27500 1
   28668    27499    27545 1
   28669    27499    27546 1
   28670    27500    27501 1
   28671    27500    27547 1
   28672    27500    27548 1
   28673    27501    27502 1
   28674    27501    27549 1
   28675    27501    27550 1
   28676    27502    27503 1
   28677    27502    27551 1
   28678    27502    27552 1
   28679    27503    27553 1
   28680    27503    27554 1
   28681    27503    27555 1
   28682    27504    27505 1
   28683    27504    27556 1
   28684    27504    27557 1
   28685    27505    27506 1
   28686    27505    27512 1
   28687    27505    27558 1
   28688    27506    27507 1
   28689    27506    27559 1
   28690    27506    27560 1
   28691    27507    27508 1
   28692    27507    27561 1
   28693    27507    27562 1
   28694    27508    27509 1
   28695    27508    27563 1
   28696    27508    27564 1
   28697    27509    27510 1
   28698    27509    27565 1
   28699    27509    27566 1
   28700    27510    27511 1
   28701    27510    27567 1
   28702    27510    27568 1
   28703    27511    27569 1
   28704    27511    27570 1
   28705    27511    27571 1
   28706    27512    27513 1
   28707    27512    27572 1
   28708    27512    27573 1
   28709    27513    27514 1
   28710    27513    27574 1
   28711    27513    27575 1
   28712    27514    27515 1
   28713    27514    27576 1
   28714    27514    27577 1
   28715    27515    27516 1
   28716    27515    27578 1
   28717    27515    27579 1
   28718    27516    27517 1
   28719    27516    27580 1
   28720    27516    27581 1
   28721    27517    27518 1
   28722    27517    27582 1
   28723    27517    27583 1
   28724    27518    27519 1
   28725    27518    27584 1
   28726    27518    27585 1
   28727    27519    27586 1
   28728    27519    27587 1
   28729    27519    27588 1
   28730    27589    27590 1
   28731    27589    27609 1
   28732    27589    27625 1
   28733    27589    27593 1
   28734    27590    27591 1
   28735    27590    27608 1
   28736    27591    27592 1
   28737    27591    27606 1
   28738    27592    27593 1
   28739    27592    27596 1
   28740    27593    27594 1
   28741    27594    27595 1
   28742    27594    27641 1
   28743    27595    27596 1
   28744    27595    27597 1
   28745    27597    27598 1
   28746    27597    27602 1
   28747    27598    27599 1
   28748    27598    27642 1
   28749    27599    27600 1
   28750    27600    27601 1
   28751    27601    27602 1
   28752    27601    27605 1
   28753    27602    27603 1
   28754    27603    27604 1
   28755    27604    27605 1
   28756    27606    27607 1
   28757    27607    27608 1
   28758    27607    27721 1
   28759    27608    27643 1
   28760    27609    27610 1
   28761    27609    27644 1
   28762    27609    27645 1
   28763    27610    27611 1
   28764    27610    27617 1
   28765    27610    27646 1
   28766    27611    27612 1
   28767    27611    27647 1
   28768    27611    27648 1
   28769    27612    27613 1
   28770    27612    27649 1
   28771    27612    27650 1
   28772    27613    27614 1
   28773    27613    27651 1
   28774    27613    27652 1
   28775    27614    27615 1
   28776    27614    27653 1
   28777    27614    27654 1
   28778    27615    27616 1
   28779    27615    27655 1
   28780    27615    27656 1
   28781    27616    27657 1
   28782    27616    27658 1
   28783    27616    27659 1
   28784    27617    27618 1
   28785    27617    27660 1
   28786    27617    27661 1
   28787    27618    27619 1
   28788    27618    27662 1
   28789    27618    27663 1
   28790    27619    27620 1
   28791    27619    27664 1
   28792    27619    27665 1
   28793    27620    27621 1
   28794    27620    27666 1
   28795    27620    27667 1
   28796    27621    27622 1
   28797    27621    27668 1
   28798    27621    27669 1
   28799    27622    27623 1
   28800    27622    27670 1
   28801    27622    27671 1
   28802    27623    27624 1
   28803    27623    27672 1
   28804    27623    27673 1
   28805    27624    27674 1
   28806    27624    27675 1
   28807    27624    27676 1
   28808    27625    27626 1
   28809    27625    27677 1
   28810    27625    27678 1
   28811    27626    27627 1
   28812    27626    27633 1
   28813    27626    27679 1
   28814    27627    27628 1
   28815    27627    27680 1
   28816    27627    27681 1
   28817    27628    27629 1
   28818    27628    27682 1
   28819    27628    27683 1
   28820    27629    27630 1
   28821    27629    27684 1
   28822    27629    27685 1
   28823    27630    27631 1
   28824    27630    27686 1
   28825    27630    27687 1
   28826    27631    27632 1
   28827    27631    27688 1
   28828    27631    27689 1
   28829    27632    27690 1
   28830    27632    27691 1
   28831    27632    27692 1
   28832    27633    27634 1
   28833    27633    27693 1
   28834    27633    27694 1
   28835    27634    27635 1
   28836    27634    27695 1
   28837    27634    27696 1
   28838    27635    27636 1
   28839    27635    27697 1
   28840    27635    27698 1
   28841    27636    27637 1
   28842    27636    27699 1
   28843    27636    27700 1
   28844    27637    27638 1
   28845    27637    27701 1
   28846    27637    27702 1
   28847    27638    27639 1
   28848    27638    27703 1
   28849    27638    27704 1
   28850    27639    27640 1
   28851    27639    27705 1
   28852    27639    27706 1
   28853    27640    27707 1
   28854    27640    27708 1
   28855    27640    27709 1
   28856    27710    27711 1
   28857    27710    27730 1
   28858    27710    27746 1
   28859    27710    27714 1
   28860    27711    27712 1
   28861    27711    27729 1
   28862    27712    27713 1
   28863    27712    27727 1
   28864    27713    27714 1
   28865    27713    27717 1
   28866    27714    27715 1
   28867    27715    27716 1
   28868    27715    27762 1
   28869    27716    27717 1
   28870    27716    27718 1
   28871    27718    27719 1
   28872    27718    27723 1
   28873    27719    27720 1
   28874    27719    27763 1
   28875    27720    27721 1
   28876    27721    27722 1
   28877    27722    27723 1
   28878    27722    27726 1
   28879    27723    27724 1
   28880    27724    27725 1
   28881    27725    27726 1
   28882    27727    27728 1
   28883    27728    27729 1
   28884    27728    27842 1
   28885    27729    27764 1
   28886    27730    27731 1
   28887    27730    27765 1
   28888    27730    27766 1
   28889    27731    27732 1
   28890    27731    27738 1
   28891    27731    27767 1
   28892    27732    27733 1
   28893    27732    27768 1
   28894    27732    27769 1
   28895    27733    27734 1
   28896    27733    27770 1
   28897    27733    27771 1
   28898    27734    27735 1
   28899    27734    27772 1
   28900    27734    27773 1
   28901    27735    27736 1
   28902    27735    27774 1
   28903    27735    27775 1
   28904    27736    27737 1
   28905    27736    27776 1
   28906    27736    27777 1
   28907    27737    27778 1
   28908    27737    27779 1
   28909    27737    27780 1
   28910    27738    27739 1
   28911    27738    27781 1
   28912    27738    27782 1
   28913    27739    27740 1
   28914    27739    27783 1
   28915    27739    27784 1
   28916    27740    27741 1
   28917    27740    27785 1
   28918    27740    27786 1
   28919    27741    27742 1
   28920    27741    27787 1
   28921    27741    27788 1
   28922    27742    27743 1
   28923    27742    27789 1
   28924    27742    27790 1
   28925    27743    27744 1
   28926    27743    27791 1
   28927    27743    27792 1
   28928    27744    27745 1
   28929    27744    27793 1
   28930    27744    27794 1
   28931    27745    27795 1
   28932    27745    27796 1
   28933    27745    27797 1
   28934    27746    27747 1
   28935    27746    27798 1
   28936    27746    27799 1
   28937    27747    27748 1
   28938    27747    27754 1
   28939    27747    27800 1
   28940    27748    27749 1
   28941    27748    27801 1
   28942    27748    27802 1
   28943    27749    27750 1
   28944    27749    27803 1
   28945    27749    27804 1
   28946    27750    27751 1
   28947    27750    27805 1
   28948    27750    27806 1
   28949    27751    27752 1
   28950    27751    27807 1
   28951    27751    27808 1
   28952    27752    27753 1
   28953    27752    27809 1
   28954    27752    27810 1
   28955    27753    27811 1
   28956    27753    27812 1
   28957    27753    27813 1
   28958    27754    27755 1
   28959    27754    27814 1
   28960    27754    27815 1
   28961    27755    27756 1
   28962    27755    27816 1
   28963    27755    27817 1
   28964    27756    27757 1
   28965    27756    27818 1
   28966    27756    27819 1
   28967    27757    27758 1
   28968    27757    27820 1
   28969    27757    27821 1
   28970    27758    27759 1
   28971    27758    27822 1
   28972    27758    27823 1
   28973    27759    27760 1
   28974    27759    27824 1
   28975    27759    27825 1
   28976    27760    27761 1
   28977    27760    27826 1
   28978    27760    27827 1
   28979    27761    27828 1
   28980    27761    27829 1
   28981    27761    27830 1
   28982    27831    27832 1
   28983    27831    27851 1
   28984    27831    27867 1
   28985    27831    27835 1
   28986    27832    27833 1
   28987    27832    27850 1
   28988    27833    27834 1
   28989    27833    27848 1
   28990    27834    27835 1
   28991    27834    27838 1
   28992    27835    27836 1
   28993    27836    27837 1
   28994    27836    27883 1
   28995    27837    27838 1
   28996    27837    27839 1
   28997    27839    27840 1
   28998    27839    27844 1
   28999    27840    27841 1
   29000    27840    27884 1
   29001    27841    27842 1
   29002    27842    27843 1
   29003    27843    27844 1
   29004    27843    27847 1
   29005    27844    27845 1
   29006    27845    27846 1
   29007    27846    27847 1
   29008    27848    27849 1
   29009    27849    27850 1
   29010    27849    27963 1
   29011    27850    27885 1
   29012    27851    27852 1
   29013    27851    27886 1
   29014    27851    27887 1
   29015    27852    27853 1
   29016    27852    27859 1
   29017    27852    27888 1
   29018    27853    27854 1
   29019    27853    27889 1
   29020    27853    27890 1
   29021    27854    27855 1
   29022    27854    27891 1
   29023    27854    27892 1
   29024    27855    27856 1
   29025    27855    27893 1
   29026    27855    27894 1
   29027    27856    27857 1
   29028    27856    27895 1
   29029    27856    27896 1
   29030    27857    27858 1
   29031    27857    27897 1
   29032    27857    27898 1
   29033    27858    27899 1
   29034    27858    27900 1
   29035    27858    27901 1
   29036    27859    27860 1
   29037    27859    27902 1
   29038    27859    27903 1
   29039    27860    27861 1
   29040    27860    27904 1
   29041    27860    27905 1
   29042    27861    27862 1
   29043    27861    27906 1
   29044    27861    27907 1
   29045    27862    27863 1
   29046    27862    27908 1
   29047    27862    27909 1
   29048    27863    27864 1
   29049    27863    27910 1
   29050    27863    27911 1
   29051    27864    27865 1
   29052    27864    27912 1
   29053    27864    27913 1
   29054    27865    27866 1
   29055    27865    27914 1
   29056    27865    27915 1
   29057    27866    27916 1
   29058    27866    27917 1
   29059    27866    27918 1
   29060    27867    27868 1
   29061    27867    27919 1
   29062    27867    27920 1
   29063    27868    27869 1
   29064    27868    27875 1
   29065    27868    27921 1
   29066    27869    27870 1
   29067    27869    27922 1
   29068    27869    27923 1
   29069    27870    27871 1
   29070    27870    27924 1
   29071    27870    27925 1
   29072    27871    27872 1
   29073    27871    27926 1
   29074    27871    27927 1
   29075    27872    27873 1
   29076    27872    27928 1
   29077    27872    27929 1
   29078    27873    27874 1
   29079    27873    27930 1
   29080    27873    27931 1
   29081    27874    27932 1
   29082    27874    27933 1
   29083    27874    27934 1
   29084    27875    27876 1
   29085    27875    27935 1
   29086    27875    27936 1
   29087    27876    27877 1
   29088    27876    27937 1
   29089    27876    27938 1
   29090    27877    27878 1
   29091    27877    27939 1
   29092    27877    27940 1
   29093    27878    27879 1
   29094    27878    27941 1
   29095    27878    27942 1
   29096    27879    27880 1
   29097    27879    27943 1
   29098    27879    27944 1
   29099    27880    27881 1
   29100    27880    27945 1
   29101    27880    27946 1
   29102    27881    27882 1
   29103    27881    27947 1
   29104    27881    27948 1
   29105    27882    27949 1
   29106    27882    27950 1
   29107    27882    27951 1
   29108    27952    27953 1
   29109    27952    27972 1
   29110    27952    27988 1
   29111    27952    27956 1
   29112    27953    27954 1
   29113    27953    27971 1
   29114    27954    27955 1
   29115    27954    27969 1
   29116    27955    27956 1
   29117    27955    27959 1
   29118    27956    27957 1
   29119    27957    27958 1
   29120    27957    28004 1
   29121    27958    27959 1
   29122    27958    27960 1
   29123    27960    27961 1
   29124    27960    27965 1
   29125    27961    27962 1
   29126    27961    28005 1
   29127    27962    27963 1
   29128    27963    27964 1
   29129    27964    27965 1
   29130    27964    27968 1
   29131    27965    27966 1
   29132    27966    27967 1
   29133    27967    27968 1
   29134    27969    27970 1
   29135    27970    27971 1
   29136    27970    28084 1
   29137    27971    28006 1
   29138    27972    27973 1
   29139    27972    28007 1
   29140    27972    28008 1
   29141    27973    27974 1
   29142    27973    27980 1
   29143    27973    28009 1
   29144    27974    27975 1
   29145    27974    28010 1
   29146    27974    28011 1
   29147    27975    27976 1
   29148    27975    28012 1
   29149    27975    28013 1
   29150    27976    27977 1
   29151    27976    28014 1
   29152    27976    28015 1
   29153    27977    27978 1
   29154    27977    28016 1
   29155    27977    28017 1
   29156    27978    27979 1
   29157    27978    28018 1
   29158    27978    28019 1
   29159    27979    28020 1
   29160    27979    28021 1
   29161    27979    28022 1
   29162    27980    27981 1
   29163    27980    28023 1
   29164    27980    28024 1
   29165    27981    27982 1
   29166    27981    28025 1
   29167    27981    28026 1
   29168    27982    27983 1
   29169    27982    28027 1
   29170    27982    28028 1
   29171    27983    27984 1
   29172    27983    28029 1
   29173    27983    28030 1
   29174    27984    27985 1
   29175    27984    28031 1
   29176    27984    28032 1
   29177    27985    27986 1
   29178    27985    28033 1
   29179    27985    28034 1
   29180    27986    27987 1
   29181    27986    28035 1
   29182    27986    28036 1
   29183    27987    28037 1
   29184    27987    28038 1
   29185    27987    28039 1
   29186    27988    27989 1
   29187    27988    28040 1
   29188    27988    28041 1
   29189    27989    27990 1
   29190    27989    27996 1
   29191    27989    28042 1
   29192    27990    27991 1
   29193    27990    28043 1
   29194    27990    28044 1
   29195    27991    27992 1
   29196    27991    28045 1
   29197    27991    28046 1
   29198    27992    27993 1
   29199    27992    28047 1
   29200    27992    28048 1
   29201    27993    27994 1
   29202    27993    28049 1
   29203    27993    28050 1
   29204    27994    27995 1
   29205    27994    28051 1
   29206    27994    28052 1
   29207    27995    28053 1
   29208    27995    28054 1
   29209    27995    28055 1
   29210    27996    27997 1
   29211    27996    28056 1
   29212    27996    28057 1
   29213    27997    27998 1
   29214    27997    28058 1
   29215    27997    28059 1
   29216    27998    27999 1
   29217    27998    28060 1
   29218    27998    28061 1
   29219    27999    28000 1
   29220    27999    28062 1
   29221    27999    28063 1
   29222    28000    28001 1
   29223    28000    28064 1
   29224    28000    28065 1
   29225    28001    28002 1
   29226    28001    28066 1
   29227    28001    28067 1
   29228    28002    28003 1
   29229    28002    28068 1
   29230    28002    28069 1
   29231    28003    28070 1
   29232    28003    28071 1
   29233    28003    28072 1
   29234    28073    28074 1
   29235    28073    28093 1
   29236    28073    28109 1
   29237    28073    28077 1
   29238    28074    28075 1
   29239    28074    28092 1
   29240    28075    28076 1
   29241    28075    28090 1
   29242    28076    28077 1
   29243    28076    28080 1
   29244    28077    28078 1
   29245    28078    28079 1
   29246    28078    28125 1
   29247    28079    28080 1
   29248    28079    28081 1
   29249    28081    28082 1
   29250    28081    28086 1
   29251    28082    28083 1
   29252    28082    28126 1
   29253    28083    28084 1
   29254    28084    28085 1
   29255    28085    28086 1
   29256    28085    28089 1
   29257    28086    28087 1
   29258    28087    28088 1
   29259    28088    28089 1
   29260    28090    28091 1
   29261    28091    28092 1
   29262    28091    28205 1
   29263    28092    28127 1
   29264    28093    28094 1
   29265    28093    28128 1
   29266    28093    28129 1
   29267    28094    28095 1
   29268    28094    28101 1
   29269    28094    28130 1
   29270    28095    28096 1
   29271    28095    28131 1
   29272    28095    28132 1
   29273    28096    28097 1
   29274    28096    28133 1
   29275    28096    28134 1
   29276    28097    28098 1
   29277    28097    28135 1
   29278    28097    28136 1
   29279    28098    28099 1
   29280    28098    28137 1
   29281    28098    28138 1
   29282    28099    28100 1
   29283    28099    28139 1
   29284    28099    28140 1
   29285    28100    28141 1
   29286    28100    28142 1
   29287    28100    28143 1
   29288    28101    28102 1
   29289    28101    28144 1
   29290    28101    28145 1
   29291    28102    28103 1
   29292    28102    28146 1
   29293    28102    28147 1
   29294    28103    28104 1
   29295    28103    28148 1
   29296    28103    28149 1
   29297    28104    28105 1
   29298    28104    28150 1
   29299    28104    28151 1
   29300    28105    28106 1
   29301    28105    28152 1
   29302    28105    28153 1
   29303    28106    28107 1
   29304    28106    28154 1
   29305    28106    28155 1
   29306    28107    28108 1
   29307    28107    28156 1
   29308    28107    28157 1
   29309    28108    28158 1
   29310    28108    28159 1
   29311    28108    28160 1
   29312    28109    28110 1
   29313    28109    28161 1
   29314    28109    28162 1
   29315    28110    28111 1
   29316    28110    28117 1
   29317    28110    28163 1
   29318    28111    28112 1
   29319    28111    28164 1
   29320    28111    28165 1
   29321    28112    28113 1
   29322    28112    28166 1
   29323    28112    28167 1
   29324    28113    28114 1
   29325    28113    28168 1
   29326    28113    28169 1
   29327    28114    28115 1
   29328    28114    28170 1
   29329    28114    28171 1
   29330    28115    28116 1
   29331    28115    28172 1
   29332    28115    28173 1
   29333    28116    28174 1
   29334    28116    28175 1
   29335    28116    28176 1
   29336    28117    28118 1
   29337    28117    28177 1
   29338    28117    28178 1
   29339    28118    28119 1
   29340    28118    28179 1
   29341    28118    28180 1
   29342    28119    28120 1
   29343    28119    28181 1
   29344    28119    28182 1
   29345    28120    28121 1
   29346    28120    28183 1
   29347    28120    28184 1
   29348    28121    28122 1
   29349    28121    28185 1
   29350    28121    28186 1
   29351    28122    28123 1
   29352    28122    28187 1
   29353    28122    28188 1
   29354    28123    28124 1
   29355    28123    28189 1
   29356    28123    28190 1
   29357    28124    28191 1
   29358    28124    28192 1
   29359    28124    28193 1
   29360    28194    28195 1
   29361    28194    28214 1
   29362    28194    28230 1
   29363    28194    28198 1
   29364    28195    28196 1
   29365    28195    28213 1
   29366    28196    28197 1
   29367    28196    28211 1
   29368    28197    28198 1
   29369    28197    28201 1
   29370    28198    28199 1
   29371    28199    28200 1
   29372    28199    28246 1
   29373    28200    28201 1
   29374    28200    28202 1
   29375    28202    28203 1
   29376    28202    28207 1
   29377    28203    28204 1
   29378    28203    28247 1
   29379    28204    28205 1
   29380    28205    28206 1
   29381    28206    28207 1
   29382    28206    28210 1
   29383    28207    28208 1
   29384    28208    28209 1
   29385    28209    28210 1
   29386    28211    28212 1
   29387    28212    28213 1
   29388    28212    28326 1
   29389    28213    28248 1
   29390    28214    28215 1
   29391    28214    28249 1
   29392    28214    28250 1
   29393    28215    28216 1
   29394    28215    28222 1
   29395    28215    28251 1
   29396    28216    28217 1
   29397    28216    28252 1
   29398    28216    28253 1
   29399    28217    28218 1
   29400    28217    28254 1
   29401    28217    28255 1
   29402    28218    28219 1
   29403    28218    28256 1
   29404    28218    28257 1
   29405    28219    28220 1
   29406    28219    28258 1
   29407    28219    28259 1
   29408    28220    28221 1
   29409    28220    28260 1
   29410    28220    28261 1
   29411    28221    28262 1
   29412    28221    28263 1
   29413    28221    28264 1
   29414    28222    28223 1
   29415    28222    28265 1
   29416    28222    28266 1
   29417    28223    28224 1
   29418    28223    28267 1
   29419    28223    28268 1
   29420    28224    28225 1
   29421    28224    28269 1
   29422    28224    28270 1
   29423    28225    28226 1
   29424    28225    28271 1
   29425    28225    28272 1
   29426    28226    28227 1
   29427    28226    28273 1
   29428    28226    28274 1
   29429    28227    28228 1
   29430    28227    28275 1
   29431    28227    28276 1
   29432    28228    28229 1
   29433    28228    28277 1
   29434    28228    28278 1
   29435    28229    28279 1
   29436    28229    28280 1
   29437    28229    28281 1
   29438    28230    28231 1
   29439    28230    28282 1
   29440    28230    28283 1
   29441    28231    28232 1
   29442    28231    28238 1
   29443    28231    28284 1
   29444    28232    28233 1
   29445    28232    28285 1
   29446    28232    28286 1
   29447    28233    28234 1
   29448    28233    28287 1
   29449    28233    28288 1
   29450    28234    28235 1
   29451    28234    28289 1
   29452    28234    28290 1
   29453    28235    28236 1
   29454    28235    28291 1
   29455    28235    28292 1
   29456    28236    28237 1
   29457    28236    28293 1
   29458    28236    28294 1
   29459    28237    28295 1
   29460    28237    28296 1
   29461    28237    28297 1
   29462    28238    28239 1
   29463    28238    28298 1
   29464    28238    28299 1
   29465    28239    28240 1
   29466    28239    28300 1
   29467    28239    28301 1
   29468    28240    28241 1
   29469    28240    28302 1
   29470    28240    28303 1
   29471    28241    28242 1
   29472    28241    28304 1
   29473    28241    28305 1
   29474    28242    28243 1
   29475    28242    28306 1
   29476    28242    28307 1
   29477    28243    28244 1
   29478    28243    28308 1
   29479    28243    28309 1
   29480    28244    28245 1
   29481    28244    28310 1
   29482    28244    28311 1
   29483    28245    28312 1
   29484    28245    28313 1
   29485    28245    28314 1
   29486    28315    28316 1
   29487    28315    28335 1
   29488    28315    28351 1
   29489    28315    28319 1
   29490    28316    28317 1
   29491    28316    28334 1
   29492    28317    28318 1
   29493    28317    28332 1
   29494    28318    28319 1
   29495    28318    28322 1
   29496    28319    28320 1
   29497    28320    28321 1
   29498    28320    28367 1
   29499    28321    28322 1
   29500    28321    28323 1
   29501    28323    28324 1
   29502    28323    28328 1
   29503    28324    28325 1
   29504    28324    28368 1
   29505    28325    28326 1
   29506    28326    28327 1
   29507    28327    28328 1
   29508    28327    28331 1
   29509    28328    28329 1
   29510    28329    28330 1
   29511    28330    28331 1
   29512    28332    28333 1
   29513    28333    28334 1
   29514    28333    28447 1
   29515    28334    28369 1
   29516    28335    28336 1
   29517    28335    28370 1
   29518    28335    28371 1
   29519    28336    28337 1
   29520    28336    28343 1
   29521    28336    28372 1
   29522    28337    28338 1
   29523    28337    28373 1
   29524    28337    28374 1
   29525    28338    28339 1
   29526    28338    28375 1
   29527    28338    28376 1
   29528    28339    28340 1
   29529    28339    28377 1
   29530    28339    28378 1
   29531    28340    28341 1
   29532    28340    28379 1
   29533    28340    28380 1
   29534    28341    28342 1
   29535    28341    28381 1
   29536    28341    28382 1
   29537    28342    28383 1
   29538    28342    28384 1
   29539    28342    28385 1
   29540    28343    28344 1
   29541    28343    28386 1
   29542    28343    28387 1
   29543    28344    28345 1
   29544    28344    28388 1
   29545    28344    28389 1
   29546    28345    28346 1
   29547    28345    28390 1
   29548    28345    28391 1
   29549    28346    28347 1
   29550    28346    28392 1
   29551    28346    28393 1
   29552    28347    28348 1
   29553    28347    28394 1
   29554    28347    28395 1
   29555    28348    28349 1
   29556    28348    28396 1
   29557    28348    28397 1
   29558    28349    28350 1
   29559    28349    28398 1
   29560    28349    28399 1
   29561    28350    28400 1
   29562    28350    28401 1
   29563    28350    28402 1
   29564    28351    28352 1
   29565    28351    28403 1
   29566    28351    28404 1
   29567    28352    28353 1
   29568    28352    28359 1
   29569    28352    28405 1
   29570    28353    28354 1
   29571    28353    28406 1
   29572    28353    28407 1
   29573    28354    28355 1
   29574    28354    28408 1
   29575    28354    28409 1
   29576    28355    28356 1
   29577    28355    28410 1
   29578    28355    28411 1
   29579    28356    28357 1
   29580    28356    28412 1
   29581    28356    28413 1
   29582    28357    28358 1
   29583    28357    28414 1
   29584    28357    28415 1
   29585    28358    28416 1
   29586    28358    28417 1
   29587    28358    28418 1
   29588    28359    28360 1
   29589    28359    28419 1
   29590    28359    28420 1
   29591    28360    28361 1
   29592    28360    28421 1
   29593    28360    28422 1
   29594    28361    28362 1
   29595    28361    28423 1
   29596    28361    28424 1
   29597    28362    28363 1
   29598    28362    28425 1
   29599    28362    28426 1
   29600    28363    28364 1
   29601    28363    28427 1
   29602    28363    28428 1
   29603    28364    28365 1
   29604    28364    28429 1
   29605    28364    28430 1
   29606    28365    28366 1
   29607    28365    28431 1
   29608    28365    28432 1
   29609    28366    28433 1
   29610    28366    28434 1
   29611    28366    28435 1
   29612    28436    28437 1
   29613    28436    28456 1
   29614    28436    28472 1
   29615    28436    28440 1
   29616    28437    28438 1
   29617    28437    28455 1
   29618    28438    28439 1
   29619    28438    28453 1
   29620    28439    28440 1
   29621    28439    28443 1
   29622    28440    28441 1
   29623    28441    28442 1
   29624    28441    28488 1
   29625    28442    28443 1
   29626    28442    28444 1
   29627    28444    28445 1
   29628    28444    28449 1
   29629    28445    28446 1
   29630    28445    28489 1
   29631    28446    28447 1
   29632    28447    28448 1
   29633    28448    28449 1
   29634    28448    28452 1
   29635    28449    28450 1
   29636    28450    28451 1
   29637    28451    28452 1
   29638    28453    28454 1
   29639    28454    28455 1
   29640    28454    28568 1
   29641    28455    28490 1
   29642    28456    28457 1
   29643    28456    28491 1
   29644    28456    28492 1
   29645    28457    28458 1
   29646    28457    28464 1
   29647    28457    28493 1
   29648    28458    28459 1
   29649    28458    28494 1
   29650    28458    28495 1
   29651    28459    28460 1
   29652    28459    28496 1
   29653    28459    28497 1
   29654    28460    28461 1
   29655    28460    28498 1
   29656    28460    28499 1
   29657    28461    28462 1
   29658    28461    28500 1
   29659    28461    28501 1
   29660    28462    28463 1
   29661    28462    28502 1
   29662    28462    28503 1
   29663    28463    28504 1
   29664    28463    28505 1
   29665    28463    28506 1
   29666    28464    28465 1
   29667    28464    28507 1
   29668    28464    28508 1
   29669    28465    28466 1
   29670    28465    28509 1
   29671    28465    28510 1
   29672    28466    28467 1
   29673    28466    28511 1
   29674    28466    28512 1
   29675    28467    28468 1
   29676    28467    28513 1
   29677    28467    28514 1
   29678    28468    28469 1
   29679    28468    28515 1
   29680    28468    28516 1
   29681    28469    28470 1
   29682    28469    28517 1
   29683    28469    28518 1
   29684    28470    28471 1
   29685    28470    28519 1
   29686    28470    28520 1
   29687    28471    28521 1
   29688    28471    28522 1
   29689    28471    28523 1
   29690    28472    28473 1
   29691    28472    28524 1
   29692    28472    28525 1
   29693    28473    28474 1
   29694    28473    28480 1
   29695    28473    28526 1
   29696    28474    28475 1
   29697    28474    28527 1
   29698    28474    28528 1
   29699    28475    28476 1
   29700    28475    28529 1
   29701    28475    28530 1
   29702    28476    28477 1
   29703    28476    28531 1
   29704    28476    28532 1
   29705    28477    28478 1
   29706    28477    28533 1
   29707    28477    28534 1
   29708    28478    28479 1
   29709    28478    28535 1
   29710    28478    28536 1
   29711    28479    28537 1
   29712    28479    28538 1
   29713    28479    28539 1
   29714    28480    28481 1
   29715    28480    28540 1
   29716    28480    28541 1
   29717    28481    28482 1
   29718    28481    28542 1
   29719    28481    28543 1
   29720    28482    28483 1
   29721    28482    28544 1
   29722    28482    28545 1
   29723    28483    28484 1
   29724    28483    28546 1
   29725    28483    28547 1
   29726    28484    28485 1
   29727    28484    28548 1
   29728    28484    28549 1
   29729    28485    28486 1
   29730    28485    28550 1
   29731    28485    28551 1
   29732    28486    28487 1
   29733    28486    28552 1
   29734    28486    28553 1
   29735    28487    28554 1
   29736    28487    28555 1
   29737    28487    28556 1
   29738    28557    28558 1
   29739    28557    28577 1
   29740    28557    28593 1
   29741    28557    28561 1
   29742    28558    28559 1
   29743    28558    28576 1
   29744    28559    28560 1
   29745    28559    28574 1
   29746    28560    28561 1
   29747    28560    28564 1
   29748    28561    28562 1
   29749    28562    28563 1
   29750    28562    28609 1
   29751    28563    28564 1
   29752    28563    28565 1
   29753    28565    28566 1
   29754    28565    28570 1
   29755    28566    28567 1
   29756    28566    28610 1
   29757    28567    28568 1
   29758    28568    28569 1
   29759    28569    28570 1
   29760    28569    28573 1
   29761    28570    28571 1
   29762    28571    28572 1
   29763    28572    28573 1
   29764    28574    28575 1
   29765    28575    28576 1
   29766    28575    28689 1
   29767    28576    28611 1
   29768    28577    28578 1
   29769    28577    28612 1
   29770    28577    28613 1
   29771    28578    28579 1
   29772    28578    28585 1
   29773    28578    28614 1
   29774    28579    28580 1
   29775    28579    28615 1
   29776    28579    28616 1
   29777    28580    28581 1
   29778    28580    28617 1
   29779    28580    28618 1
   29780    28581    28582 1
   29781    28581    28619 1
   29782    28581    28620 1
   29783    28582    28583 1
   29784    28582    28621 1
   29785    28582    28622 1
   29786    28583    28584 1
   29787    28583    28623 1
   29788    28583    28624 1
   29789    28584    28625 1
   29790    28584    28626 1
   29791    28584    28627 1
   29792    28585    28586 1
   29793    28585    28628 1
   29794    28585    28629 1
   29795    28586    28587 1
   29796    28586    28630 1
   29797    28586    28631 1
   29798    28587    28588 1
   29799    28587    28632 1
   29800    28587    28633 1
   29801    28588    28589 1
   29802    28588    28634 1
   29803    28588    28635 1
   29804    28589    28590 1
   29805    28589    28636 1
   29806    28589    28637 1
   29807    28590    28591 1
   29808    28590    28638 1
   29809    28590    28639 1
   29810    28591    28592 1
   29811    28591    28640 1
   29812    28591    28641 1
   29813    28592    28642 1
   29814    28592    28643 1
   29815    28592    28644 1
   29816    28593    28594 1
   29817    28593    28645 1
   29818    28593    28646 1
   29819    28594    28595 1
   29820    28594    28601 1
   29821    28594    28647 1
   29822    28595    28596 1
   29823    28595    28648 1
   29824    28595    28649 1
   29825    28596    28597 1
   29826    28596    28650 1
   29827    28596    28651 1
   29828    28597    28598 1
   29829    28597    28652 1
   29830    28597    28653 1
   29831    28598    28599 1
   29832    28598    28654 1
   29833    28598    28655 1
   29834    28599    28600 1
   29835    28599    28656 1
   29836    28599    28657 1
   29837    28600    28658 1
   29838    28600    28659 1
   29839    28600    28660 1
   29840    28601    28602 1
   29841    28601    28661 1
   29842    28601    28662 1
   29843    28602    28603 1
   29844    28602    28663 1
   29845    28602    28664 1
   29846    28603    28604 1
   29847    28603    28665 1
   29848    28603    28666 1
   29849    28604    28605 1
   29850    28604    28667 1
   29851    28604    28668 1
   29852    28605    28606 1
   29853    28605    28669 1
   29854    28605    28670 1
   29855    28606    28607 1
   29856    28606    28671 1
   29857    28606    28672 1
   29858    28607    28608 1
   29859    28607    28673 1
   29860    28607    28674 1
   29861    28608    28675 1
   29862    28608    28676 1
   29863    28608    28677 1
   29864    28678    28679 1
   29865    28678    28698 1
   29866    28678    28714 1
   29867    28678    28682 1
   29868    28679    28680 1
   29869    28679    28697 1
   29870    28680    28681 1
   29871    28680    28695 1
   29872    28681    28682 1
   29873    28681    28685 1
   29874    28682    28683 1
   29875    28683    28684 1
   29876    28683    28730 1
   29877    28684    28685 1
   29878    28684    28686 1
   29879    28686    28687 1
   29880    28686    28691 1
   29881    28687    28688 1
   29882    28687    28731 1
   29883    28688    28689 1
   29884    28689    28690 1
   29885    28690    28691 1
   29886    28690    28694 1
   29887    28691    28692 1
   29888    28692    28693 1
   29889    28693    28694 1
   29890    28695    28696 1
   29891    28696    28697 1
   29892    28696    28810 1
   29893    28697    28732 1
   29894    28698    28699 1
   29895    28698    28733 1
   29896    28698    28734 1
   29897    28699    28700 1
   29898    28699    28706 1
   29899    28699    28735 1
   29900    28700    28701 1
   29901    28700    28736 1
   29902    28700    28737 1
   29903    28701    28702 1
   29904    28701    28738 1
   29905    28701    28739 1
   29906    28702    28703 1
   29907    28702    28740 1
   29908    28702    28741 1
   29909    28703    28704 1
   29910    28703    28742 1
   29911    28703    28743 1
   29912    28704    28705 1
   29913    28704    28744 1
   29914    28704    28745 1
   29915    28705    28746 1
   29916    28705    28747 1
   29917    28705    28748 1
   29918    28706    28707 1
   29919    28706    28749 1
   29920    28706    28750 1
   29921    28707    28708 1
   29922    28707    28751 1
   29923    28707    28752 1
   29924    28708    28709 1
   29925    28708    28753 1
   29926    28708    28754 1
   29927    28709    28710 1
   29928    28709    28755 1
   29929    28709    28756 1
   29930    28710    28711 1
   29931    28710    28757 1
   29932    28710    28758 1
   29933    28711    28712 1
   29934    28711    28759 1
   29935    28711    28760 1
   29936    28712    28713 1
   29937    28712    28761 1
   29938    28712    28762 1
   29939    28713    28763 1
   29940    28713    28764 1
   29941    28713    28765 1
   29942    28714    28715 1
   29943    28714    28766 1
   29944    28714    28767 1
   29945    28715    28716 1
   29946    28715    28722 1
   29947    28715    28768 1
   29948    28716    28717 1
   29949    28716    28769 1
   29950    28716    28770 1
   29951    28717    28718 1
   29952    28717    28771 1
   29953    28717    28772 1
   29954    28718    28719 1
   29955    28718    28773 1
   29956    28718    28774 1
   29957    28719    28720 1
   29958    28719    28775 1
   29959    28719    28776 1
   29960    28720    28721 1
   29961    28720    28777 1
   29962    28720    28778 1
   29963    28721    28779 1
   29964    28721    28780 1
   29965    28721    28781 1
   29966    28722    28723 1
   29967    28722    28782 1
   29968    28722    28783 1
   29969    28723    28724 1
   29970    28723    28784 1
   29971    28723    28785 1
   29972    28724    28725 1
   29973    28724    28786 1
   29974    28724    28787 1
   29975    28725    28726 1
   29976    28725    28788 1
   29977    28725    28789 1
   29978    28726    28727 1
   29979    28726    28790 1
   29980    28726    28791 1
   29981    28727    28728 1
   29982    28727    28792 1
   29983    28727    28793 1
   29984    28728    28729 1
   29985    28728    28794 1
   29986    28728    28795 1
   29987    28729    28796 1
   29988    28729    28797 1
   29989    28729    28798 1
   29990    28799    28800 1
   29991    28799    28819 1
   29992    28799    28835 1
   29993    28799    28803 1
   29994    28800    28801 1
   29995    28800    28818 1
   29996    28801    28802 1
   29997    28801    28816 1
   29998    28802    28803 1
   29999    28802    28806 1
   30000    28803    28804 1
   30001    28804    28805 1
   30002    28804    28851 1
   30003    28805    28806 1
   30004    28805    28807 1
   30005    28807    28808 1
   30006    28807    28812 1
   30007    28808    28809 1
   30008    28808    28852 1
   30009    28809    28810 1
   30010    28810    28811 1
   30011    28811    28812 1
   30012    28811    28815 1
   30013    28812    28813 1
   30014    28813    28814 1
   30015    28814    28815 1
   30016    28816    28817 1
   30017    28817    28818 1
   30018    28817    28931 1
   30019    28818    28853 1
   30020    28819    28820 1
   30021    28819    28854 1
   30022    28819    28855 1
   30023    28820    28821 1
   30024    28820    28827 1
   30025    28820    28856 1
   30026    28821    28822 1
   30027    28821    28857 1
   30028    28821    28858 1
   30029    28822    28823 1
   30030    28822    28859 1
   30031    28822    28860 1
   30032    28823    28824 1
   30033    28823    28861 1
   30034    28823    28862 1
   30035    28824    28825 1
   30036    28824    28863 1
   30037    28824    28864 1
   30038    28825    28826 1
   30039    28825    28865 1
   30040    28825    28866 1
   30041    28826    28867 1
   30042    28826    28868 1
   30043    28826    28869 1
   30044    28827    28828 1
   30045    28827    28870 1
   30046    28827    28871 1
   30047    28828    28829 1
   30048    28828    28872 1
   30049    28828    28873 1
   30050    28829    28830 1
   30051    28829    28874 1
   30052    28829    28875 1
   30053    28830    28831 1
   30054    28830    28876 1
   30055    28830    28877 1
   30056    28831    28832 1
   30057    28831    28878 1
   30058    28831    28879 1
   30059    28832    28833 1
   30060    28832    28880 1
   30061    28832    28881 1
   30062    28833    28834 1
   30063    28833    28882 1
   30064    28833    28883 1
   30065    28834    28884 1
   30066    28834    28885 1
   30067    28834    28886 1
   30068    28835    28836 1
   30069    28835    28887 1
   30070    28835    28888 1
   30071    28836    28837 1
   30072    28836    28843 1
   30073    28836    28889 1
   30074    28837    28838 1
   30075    28837    28890 1
   30076    28837    28891 1
   30077    28838    28839 1
   30078    28838    28892 1
   30079    28838    28893 1
   30080    28839    28840 1
   30081    28839    28894 1
   30082    28839    28895 1
   30083    28840    28841 1
   30084    28840    28896 1
   30085    28840    28897 1
   30086    28841    28842 1
   30087    28841    28898 1
   30088    28841    28899 1
   30089    28842    28900 1
   30090    28842    28901 1
   30091    28842    28902 1
   30092    28843    28844 1
   30093    28843    28903 1
   30094    28843    28904 1
   30095    28844    28845 1
   30096    28844    28905 1
   30097    28844    28906 1
   30098    28845    28846 1
   30099    28845    28907 1
   30100    28845    28908 1
   30101    28846    28847 1
   30102    28846    28909 1
   30103    28846    28910 1
   30104    28847    28848 1
   30105    28847    28911 1
   30106    28847    28912 1
   30107    28848    28849 1
   30108    28848    28913 1
   30109    28848    28914 1
   30110    28849    28850 1
   30111    28849    28915 1
   30112    28849    28916 1
   30113    28850    28917 1
   30114    28850    28918 1
   30115    28850    28919 1
   30116    28920    28921 1
   30117    28920    28940 1
   30118    28920    28956 1
   30119    28920    28924 1
   30120    28921    28922 1
   30121    28921    28939 1
   30122    28922    28923 1
   30123    28922    28937 1
   30124    28923    28924 1
   30125    28923    28927 1
   30126    28924    28925 1
   30127    28925    28926 1
   30128    28925    28972 1
   30129    28926    28927 1
   30130    28926    28928 1
   30131    28928    28929 1
   30132    28928    28933 1
   30133    28929    28930 1
   30134    28929    28973 1
   30135    28930    28931 1
   30136    28931    28932 1
   30137    28932    28933 1
   30138    28932    28936 1
   30139    28933    28934 1
   30140    28934    28935 1
   30141    28935    28936 1
   30142    28937    28938 1
   30143    28938    28939 1
   30144    28938    29052 1
   30145    28939    28974 1
   30146    28940    28941 1
   30147    28940    28975 1
   30148    28940    28976 1
   30149    28941    28942 1
   30150    28941    28948 1
   30151    28941    28977 1
   30152    28942    28943 1
   30153    28942    28978 1
   30154    28942    28979 1
   30155    28943    28944 1
   30156    28943    28980 1
   30157    28943    28981 1
   30158    28944    28945 1
   30159    28944    28982 1
   30160    28944    28983 1
   30161    28945    28946 1
   30162    28945    28984 1
   30163    28945    28985 1
   30164    28946    28947 1
   30165    28946    28986 1
   30166    28946    28987 1
   30167    28947    28988 1
   30168    28947    28989 1
   30169    28947    28990 1
   30170    28948    28949 1
   30171    28948    28991 1
   30172    28948    28992 1
   30173    28949    28950 1
   30174    28949    28993 1
   30175    28949    28994 1
   30176    28950    28951 1
   30177    28950    28995 1
   30178    28950    28996 1
   30179    28951    28952 1
   30180    28951    28997 1
   30181    28951    28998 1
   30182    28952    28953 1
   30183    28952    28999 1
   30184    28952    29000 1
   30185    28953    28954 1
   30186    28953    29001 1
   30187    28953    29002 1
   30188    28954    28955 1
   30189    28954    29003 1
   30190    28954    29004 1
   30191    28955    29005 1
   30192    28955    29006 1
   30193    28955    29007 1
   30194    28956    28957 1
   30195    28956    29008 1
   30196    28956    29009 1
   30197    28957    28958 1
   30198    28957    28964 1
   30199    28957    29010 1
   30200    28958    28959 1
   30201    28958    29011 1
   30202    28958    29012 1
   30203    28959    28960 1
   30204    28959    29013 1
   30205    28959    29014 1
   30206    28960    28961 1
   30207    28960    29015 1
   30208    28960    29016 1
   30209    28961    28962 1
   30210    28961    29017 1
   30211    28961    29018 1
   30212    28962    28963 1
   30213    28962    29019 1
   30214    28962    29020 1
   30215    28963    29021 1
   30216    28963    29022 1
   30217    28963    29023 1
   30218    28964    28965 1
   30219    28964    29024 1
   30220    28964    29025 1
   30221    28965    28966 1
   30222    28965    29026 1
   30223    28965    29027 1
   30224    28966    28967 1
   30225    28966    29028 1
   30226    28966    29029 1
   30227    28967    28968 1
   30228    28967    29030 1
   30229    28967    29031 1
   30230    28968    28969 1
   30231    28968    29032 1
   30232    28968    29033 1
   30233    28969    28970 1
   30234    28969    29034 1
   30235    28969    29035 1
   30236    28970    28971 1
   30237    28970    29036 1
   30238    28970    29037 1
   30239    28971    29038 1
   30240    28971    29039 1
   30241    28971    29040 1
   30242    29041    29042 1
   30243    29041    29061 1
   30244    29041    29077 1
   30245    29041    29045 1
   30246    29042    29043 1
   30247    29042    29060 1
   30248    29043    29044 1
   30249    29043    29058 1
   30250    29044    29045 1
   30251    29044    29048 1
   30252    29045    29046 1
   30253    29046    29047 1
   30254    29046    29093 1
   30255    29047    29048 1
   30256    29047    29049 1
   30257    29049    29050 1
   30258    29049    29054 1
   30259    29050    29051 1
   30260    29050    29094 1
   30261    29051    29052 1
   30262    29052    29053 1
   30263    29053    29054 1
   30264    29053    29057 1
   30265    29054    29055 1
   30266    29055    29056 1
   30267    29056    29057 1
   30268    29058    29059 1
   30269    29059    29060 1
   30270    29059    29173 1
   30271    29060    29095 1
   30272    29061    29062 1
   30273    29061    29096 1
   30274    29061    29097 1
   30275    29062    29063 1
   30276    29062    29069 1
   30277    29062    29098 1
   30278    29063    29064 1
   30279    29063    29099 1
   30280    29063    29100 1
   30281    29064    29065 1
   30282    29064    29101 1
   30283    29064    29102 1
   30284    29065    29066 1
   30285    29065    29103 1
   30286    29065    29104 1
   30287    29066    29067 1
   30288    29066    29105 1
   30289    29066    29106 1
   30290    29067    29068 1
   30291    29067    29107 1
   30292    29067    29108 1
   30293    29068    29109 1
   30294    29068    29110 1
   30295    29068    29111 1
   30296    29069    29070 1
   30297    29069    29112 1
   30298    29069    29113 1
   30299    29070    29071 1
   30300    29070    29114 1
   30301    29070    29115 1
   30302    29071    29072 1
   30303    29071    29116 1
   30304    29071    29117 1
   30305    29072    29073 1
   30306    29072    29118 1
   30307    29072    29119 1
   30308    29073    29074 1
   30309    29073    29120 1
   30310    29073    29121 1
   30311    29074    29075 1
   30312    29074    29122 1
   30313    29074    29123 1
   30314    29075    29076 1
   30315    29075    29124 1
   30316    29075    29125 1
   30317    29076    29126 1
   30318    29076    29127 1
   30319    29076    29128 1
   30320    29077    29078 1
   30321    29077    29129 1
   30322    29077    29130 1
   30323    29078    29079 1
   30324    29078    29085 1
   30325    29078    29131 1
   30326    29079    29080 1
   30327    29079    29132 1
   30328    29079    29133 1
   30329    29080    29081 1
   30330    29080    29134 1
   30331    29080    29135 1
   30332    29081    29082 1
   30333    29081    29136 1
   30334    29081    29137 1
   30335    29082    29083 1
   30336    29082    29138 1
   30337    29082    29139 1
   30338    29083    29084 1
   30339    29083    29140 1
   30340    29083    29141 1
   30341    29084    29142 1
   30342    29084    29143 1
   30343    29084    29144 1
   30344    29085    29086 1
   30345    29085    29145 1
   30346    29085    29146 1
   30347    29086    29087 1
   30348    29086    29147 1
   30349    29086    29148 1
   30350    29087    29088 1
   30351    29087    29149 1
   30352    29087    29150 1
   30353    29088    29089 1
   30354    29088    29151 1
   30355    29088    29152 1
   30356    29089    29090 1
   30357    29089    29153 1
   30358    29089    29154 1
   30359    29090    29091 1
   30360    29090    29155 1
   30361    29090    29156 1
   30362    29091    29092 1
   30363    29091    29157 1
   30364    29091    29158 1
   30365    29092    29159 1
   30366    29092    29160 1
   30367    29092    29161 1
   30368    29162    29163 1
   30369    29162    29182 1
   30370    29162    29198 1
   30371    29162    29166 1
   30372    29163    29164 1
   30373    29163    29181 1
   30374    29164    29165 1
   30375    29164    29179 1
   30376    29165    29166 1
   30377    29165    29169 1
   30378    29166    29167 1
   30379    29167    29168 1
   30380    29167    29214 1
   30381    29168    29169 1
   30382    29168    29170 1
   30383    29170    29171 1
   30384    29170    29175 1
   30385    29171    29172 1
   30386    29171    29215 1
   30387    29172    29173 1
   30388    29173    29174 1
   30389    29174    29175 1
   30390    29174    29178 1
   30391    29175    29176 1
   30392    29176    29177 1
   30393    29177    29178 1
   30394    29179    29180 1
   30395    29180    29181 1
   30396    29180    29294 1
   30397    29181    29216 1
   30398    29182    29183 1
   30399    29182    29217 1
   30400    29182    29218 1
   30401    29183    29184 1
   30402    29183    29190 1
   30403    29183    29219 1
   30404    29184    29185 1
   30405    29184    29220 1
   30406    29184    29221 1
   30407    29185    29186 1
   30408    29185    29222 1
   30409    29185    29223 1
   30410    29186    29187 1
   30411    29186    29224 1
   30412    29186    29225 1
   30413    29187    29188 1
   30414    29187    29226 1
   30415    29187    29227 1
   30416    29188    29189 1
   30417    29188    29228 1
   30418    29188    29229 1
   30419    29189    29230 1
   30420    29189    29231 1
   30421    29189    29232 1
   30422    29190    29191 1
   30423    29190    29233 1
   30424    29190    29234 1
   30425    29191    29192 1
   30426    29191    29235 1
   30427    29191    29236 1
   30428    29192    29193 1
   30429    29192    29237 1
   30430    29192    29238 1
   30431    29193    29194 1
   30432    29193    29239 1
   30433    29193    29240 1
   30434    29194    29195 1
   30435    29194    29241 1
   30436    29194    29242 1
   30437    29195    29196 1
   30438    29195    29243 1
   30439    29195    29244 1
   30440    29196    29197 1
   30441    29196    29245 1
   30442    29196    29246 1
   30443    29197    29247 1
   30444    29197    29248 1
   30445    29197    29249 1
   30446    29198    29199 1
   30447    29198    29250 1
   30448    29198    29251 1
   30449    29199    29200 1
   30450    29199    29206 1
   30451    29199    29252 1
   30452    29200    29201 1
   30453    29200    29253 1
   30454    29200    29254 1
   30455    29201    29202 1
   30456    29201    29255 1
   30457    29201    29256 1
   30458    29202    29203 1
   30459    29202    29257 1
   30460    29202    29258 1
   30461    29203    29204 1
   30462    29203    29259 1
   30463    29203    29260 1
   30464    29204    29205 1
   30465    29204    29261 1
   30466    29204    29262 1
   30467    29205    29263 1
   30468    29205    29264 1
   30469    29205    29265 1
   30470    29206    29207 1
   30471    29206    29266 1
   30472    29206    29267 1
   30473    29207    29208 1
   30474    29207    29268 1
   30475    29207    29269 1
   30476    29208    29209 1
   30477    29208    29270 1
   30478    29208    29271 1
   30479    29209    29210 1
   30480    29209    29272 1
   30481    29209    29273 1
   30482    29210    29211 1
   30483    29210    29274 1
   30484    29210    29275 1
   30485    29211    29212 1
   30486    29211    29276 1
   30487    29211    29277 1
   30488    29212    29213 1
   30489    29212    29278 1
   30490    29212    29279 1
   30491    29213    29280 1
   30492    29213    29281 1
   30493    29213    29282 1
   30494    29283    29284 1
   30495    29283    29303 1
   30496    29283    29319 1
   30497    29283    29287 1
   30498    29284    29285 1
   30499    29284    29302 1
   30500    29285    29286 1
   30501    29285    29300 1
   30502    29286    29287 1
   30503    29286    29290 1
   30504    29287    29288 1
   30505    29288    29289 1
   30506    29288    29335 1
   30507    29289    29290 1
   30508    29289    29291 1
   30509    29291    29292 1
   30510    29291    29296 1
   30511    29292    29293 1
   30512    29292    29336 1
   30513    29293    29294 1
   30514    29294    29295 1
   30515    29295    29296 1
   30516    29295    29299 1
   30517    29296    29297 1
   30518    29297    29298 1
   30519    29298    29299 1
   30520    29300    29301 1
   30521    29301    29302 1
   30522    29301    29415 1
   30523    29302    29337 1
   30524    29303    29304 1
   30525    29303    29338 1
   30526    29303    29339 1
   30527    29304    29305 1
   30528    29304    29311 1
   30529    29304    29340 1
   30530    29305    29306 1
   30531    29305    29341 1
   30532    29305    29342 1
   30533    29306    29307 1
   30534    29306    29343 1
   30535    29306    29344 1
   30536    29307    29308 1
   30537    29307    29345 1
   30538    29307    29346 1
   30539    29308    29309 1
   30540    29308    29347 1
   30541    29308    29348 1
   30542    29309    29310 1
   30543    29309    29349 1
   30544    29309    29350 1
   30545    29310    29351 1
   30546    29310    29352 1
   30547    29310    29353 1
   30548    29311    29312 1
   30549    29311    29354 1
   30550    29311    29355 1
   30551    29312    29313 1
   30552    29312    29356 1
   30553    29312    29357 1
   30554    29313    29314 1
   30555    29313    29358 1
   30556    29313    29359 1
   30557    29314    29315 1
   30558    29314    29360 1
   30559    29314    29361 1
   30560    29315    29316 1
   30561    29315    29362 1
   30562    29315    29363 1
   30563    29316    29317 1
   30564    29316    29364 1
   30565    29316    29365 1
   30566    29317    29318 1
   30567    29317    29366 1
   30568    29317    29367 1
   30569    29318    29368 1
   30570    29318    29369 1
   30571    29318    29370 1
   30572    29319    29320 1
   30573    29319    29371 1
   30574    29319    29372 1
   30575    29320    29321 1
   30576    29320    29327 1
   30577    29320    29373 1
   30578    29321    29322 1
   30579    29321    29374 1
   30580    29321    29375 1
   30581    29322    29323 1
   30582    29322    29376 1
   30583    29322    29377 1
   30584    29323    29324 1
   30585    29323    29378 1
   30586    29323    29379 1
   30587    29324    29325 1
   30588    29324    29380 1
   30589    29324    29381 1
   30590    29325    29326 1
   30591    29325    29382 1
   30592    29325    29383 1
   30593    29326    29384 1
   30594    29326    29385 1
   30595    29326    29386 1
   30596    29327    29328 1
   30597    29327    29387 1
   30598    29327    29388 1
   30599    29328    29329 1
   30600    29328    29389 1
   30601    29328    29390 1
   30602    29329    29330 1
   30603    29329    29391 1
   30604    29329    29392 1
   30605    29330    29331 1
   30606    29330    29393 1
   30607    29330    29394 1
   30608    29331    29332 1
   30609    29331    29395 1
   30610    29331    29396 1
   30611    29332    29333 1
   30612    29332    29397 1
   30613    29332    29398 1
   30614    29333    29334 1
   30615    29333    29399 1
   30616    29333    29400 1
   30617    29334    29401 1
   30618    29334    29402 1
   30619    29334    29403 1
   30620    29404    29405 1
   30621    29404    29424 1
   30622    29404    29440 1
   30623    29404    29408 1
   30624    29405    29406 1
   30625    29405    29423 1
   30626    29406    29407 1
   30627    29406    29421 1
   30628    29407    29408 1
   30629    29407    29411 1
   30630    29408    29409 1
   30631    29409    29410 1
   30632    29409    29456 1
   30633    29410    29411 1
   30634    29410    29412 1
   30635    29412    29413 1
   30636    29412    29417 1
   30637    29413    29414 1
   30638    29413    29457 1
   30639    29414    29415 1
   30640    29415    29416 1
   30641    29416    29417 1
   30642    29416    29420 1
   30643    29417    29418 1
   30644    29418    29419 1
   30645    29419    29420 1
   30646    29421    29422 1
   30647    29422    29423 1
   30648    29422    29536 1
   30649    29423    29458 1
   30650    29424    29425 1
   30651    29424    29459 1
   30652    29424    29460 1
   30653    29425    29426 1
   30654    29425    29432 1
   30655    29425    29461 1
   30656    29426    29427 1
   30657    29426    29462 1
   30658    29426    29463 1
   30659    29427    29428 1
   30660    29427    29464 1
   30661    29427    29465 1
   30662    29428    29429 1
   30663    29428    29466 1
   30664    29428    29467 1
   30665    29429    29430 1
   30666    29429    29468 1
   30667    29429    29469 1
   30668    29430    29431 1
   30669    29430    29470 1
   30670    29430    29471 1
   30671    29431    29472 1
   30672    29431    29473 1
   30673    29431    29474 1
   30674    29432    29433 1
   30675    29432    29475 1
   30676    29432    29476 1
   30677    29433    29434 1
   30678    29433    29477 1
   30679    29433    29478 1
   30680    29434    29435 1
   30681    29434    29479 1
   30682    29434    29480 1
   30683    29435    29436 1
   30684    29435    29481 1
   30685    29435    29482 1
   30686    29436    29437 1
   30687    29436    29483 1
   30688    29436    29484 1
   30689    29437    29438 1
   30690    29437    29485 1
   30691    29437    29486 1
   30692    29438    29439 1
   30693    29438    29487 1
   30694    29438    29488 1
   30695    29439    29489 1
   30696    29439    29490 1
   30697    29439    29491 1
   30698    29440    29441 1
   30699    29440    29492 1
   30700    29440    29493 1
   30701    29441    29442 1
   30702    29441    29448 1
   30703    29441    29494 1
   30704    29442    29443 1
   30705    29442    29495 1
   30706    29442    29496 1
   30707    29443    29444 1
   30708    29443    29497 1
   30709    29443    29498 1
   30710    29444    29445 1
   30711    29444    29499 1
   30712    29444    29500 1
   30713    29445    29446 1
   30714    29445    29501 1
   30715    29445    29502 1
   30716    29446    29447 1
   30717    29446    29503 1
   30718    29446    29504 1
   30719    29447    29505 1
   30720    29447    29506 1
   30721    29447    29507 1
   30722    29448    29449 1
   30723    29448    29508 1
   30724    29448    29509 1
   30725    29449    29450 1
   30726    29449    29510 1
   30727    29449    29511 1
   30728    29450    29451 1
   30729    29450    29512 1
   30730    29450    29513 1
   30731    29451    29452 1
   30732    29451    29514 1
   30733    29451    29515 1
   30734    29452    29453 1
   30735    29452    29516 1
   30736    29452    29517 1
   30737    29453    29454 1
   30738    29453    29518 1
   30739    29453    29519 1
   30740    29454    29455 1
   30741    29454    29520 1
   30742    29454    29521 1
   30743    29455    29522 1
   30744    29455    29523 1
   30745    29455    29524 1
   30746    29525    29526 1
   30747    29525    29545 1
   30748    29525    29561 1
   30749    29525    29529 1
   30750    29526    29527 1
   30751    29526    29544 1
   30752    29527    29528 1
   30753    29527    29542 1
   30754    29528    29529 1
   30755    29528    29532 1
   30756    29529    29530 1
   30757    29530    29531 1
   30758    29530    29577 1
   30759    29531    29532 1
   30760    29531    29533 1
   30761    29533    29534 1
   30762    29533    29538 1
   30763    29534    29535 1
   30764    29534    29578 1
   30765    29535    29536 1
   30766    29536    29537 1
   30767    29537    29538 1
   30768    29537    29541 1
   30769    29538    29539 1
   30770    29539    29540 1
   30771    29540    29541 1
   30772    29542    29543 1
   30773    29543    29544 1
   30774    29543    29657 1
   30775    29544    29579 1
   30776    29545    29546 1
   30777    29545    29580 1
   30778    29545    29581 1
   30779    29546    29547 1
   30780    29546    29553 1
   30781    29546    29582 1
   30782    29547    29548 1
   30783    29547    29583 1
   30784    29547    29584 1
   30785    29548    29549 1
   30786    29548    29585 1
   30787    29548    29586 1
   30788    29549    29550 1
   30789    29549    29587 1
   30790    29549    29588 1
   30791    29550    29551 1
   30792    29550    29589 1
   30793    29550    29590 1
   30794    29551    29552 1
   30795    29551    29591 1
   30796    29551    29592 1
   30797    29552    29593 1
   30798    29552    29594 1
   30799    29552    29595 1
   30800    29553    29554 1
   30801    29553    29596 1
   30802    29553    29597 1
   30803    29554    29555 1
   30804    29554    29598 1
   30805    29554    29599 1
   30806    29555    29556 1
   30807    29555    29600 1
   30808    29555    29601 1
   30809    29556    29557 1
   30810    29556    29602 1
   30811    29556    29603 1
   30812    29557    29558 1
   30813    29557    29604 1
   30814    29557    29605 1
   30815    29558    29559 1
   30816    29558    29606 1
   30817    29558    29607 1
   30818    29559    29560 1
   30819    29559    29608 1
   30820    29559    29609 1
   30821    29560    29610 1
   30822    29560    29611 1
   30823    29560    29612 1
   30824    29561    29562 1
   30825    29561    29613 1
   30826    29561    29614 1
   30827    29562    29563 1
   30828    29562    29569 1
   30829    29562    29615 1
   30830    29563    29564 1
   30831    29563    29616 1
   30832    29563    29617 1
   30833    29564    29565 1
   30834    29564    29618 1
   30835    29564    29619 1
   30836    29565    29566 1
   30837    29565    29620 1
   30838    29565    29621 1
   30839    29566    29567 1
   30840    29566    29622 1
   30841    29566    29623 1
   30842    29567    29568 1
   30843    29567    29624 1
   30844    29567    29625 1
   30845    29568    29626 1
   30846    29568    29627 1
   30847    29568    29628 1
   30848    29569    29570 1
   30849    29569    29629 1
   30850    29569    29630 1
   30851    29570    29571 1
   30852    29570    29631 1
   30853    29570    29632 1
   30854    29571    29572 1
   30855    29571    29633 1
   30856    29571    29634 1
   30857    29572    29573 1
   30858    29572    29635 1
   30859    29572    29636 1
   30860    29573    29574 1
   30861    29573    29637 1
   30862    29573    29638 1
   30863    29574    29575 1
   30864    29574    29639 1
   30865    29574    29640 1
   30866    29575    29576 1
   30867    29575    29641 1
   30868    29575    29642 1
   30869    29576    29643 1
   30870    29576    29644 1
   30871    29576    29645 1
   30872    29646    29647 1
   30873    29646    29666 1
   30874    29646    29682 1
   30875    29646    29650 1
   30876    29647    29648 1
   30877    29647    29665 1
   30878    29648    29649 1
   30879    29648    29663 1
   30880    29649    29650 1
   30881    29649    29653 1
   30882    29650    29651 1
   30883    29651    29652 1
   30884    29651    29698 1
   30885    29652    29653 1
   30886    29652    29654 1
   30887    29654    29655 1
   30888    29654    29659 1
   30889    29655    29656 1
   30890    29655    29699 1
   30891    29656    29657 1
   30892    29657    29658 1
   30893    29658    29659 1
   30894    29658    29662 1
   30895    29659    29660 1
   30896    29660    29661 1
   30897    29661    29662 1
   30898    29663    29664 1
   30899    29664    29665 1
   30900    29664    29778 1
   30901    29665    29700 1
   30902    29666    29667 1
   30903    29666    29701 1
   30904    29666    29702 1
   30905    29667    29668 1
   30906    29667    29674 1
   30907    29667    29703 1
   30908    29668    29669 1
   30909    29668    29704 1
   30910    29668    29705 1
   30911    29669    29670 1
   30912    29669    29706 1
   30913    29669    29707 1
   30914    29670    29671 1
   30915    29670    29708 1
   30916    29670    29709 1
   30917    29671    29672 1
   30918    29671    29710 1
   30919    29671    29711 1
   30920    29672    29673 1
   30921    29672    29712 1
   30922    29672    29713 1
   30923    29673    29714 1
   30924    29673    29715 1
   30925    29673    29716 1
   30926    29674    29675 1
   30927    29674    29717 1
   30928    29674    29718 1
   30929    29675    29676 1
   30930    29675    29719 1
   30931    29675    29720 1
   30932    29676    29677 1
   30933    29676    29721 1
   30934    29676    29722 1
   30935    29677    29678 1
   30936    29677    29723 1
   30937    29677    29724 1
   30938    29678    29679 1
   30939    29678    29725 1
   30940    29678    29726 1
   30941    29679    29680 1
   30942    29679    29727 1
   30943    29679    29728 1
   30944    29680    29681 1
   30945    29680    29729 1
   30946    29680    29730 1
   30947    29681    29731 1
   30948    29681    29732 1
   30949    29681    29733 1
   30950    29682    29683 1
   30951    29682    29734 1
   30952    29682    29735 1
   30953    29683    29684 1
   30954    29683    29690 1
   30955    29683    29736 1
   30956    29684    29685 1
   30957    29684    29737 1
   30958    29684    29738 1
   30959    29685    29686 1
   30960    29685    29739 1
   30961    29685    29740 1
   30962    29686    29687 1
   30963    29686    29741 1
   30964    29686    29742 1
   30965    29687    29688 1
   30966    29687    29743 1
   30967    29687    29744 1
   30968    29688    29689 1
   30969    29688    29745 1
   30970    29688    29746 1
   30971    29689    29747 1
   30972    29689    29748 1
   30973    29689    29749 1
   30974    29690    29691 1
   30975    29690    29750 1
   30976    29690    29751 1
   30977    29691    29692 1
   30978    29691    29752 1
   30979    29691    29753 1
   30980    29692    29693 1
   30981    29692    29754 1
   30982    29692    29755 1
   30983    29693    29694 1
   30984    29693    29756 1
   30985    29693    29757 1
   30986    29694    29695 1
   30987    29694    29758 1
   30988    29694    29759 1
   30989    29695    29696 1
   30990    29695    29760 1
   30991    29695    29761 1
   30992    29696    29697 1
   30993    29696    29762 1
   30994    29696    29763 1
   30995    29697    29764 1
   30996    29697    29765 1
   30997    29697    29766 1
   30998    29767    29768 1
   30999    29767    29787 1
   31000    29767    29803 1
   31001    29767    29771 1
   31002    29768    29769 1
   31003    29768    29786 1
   31004    29769    29770 1
   31005    29769    29784 1
   31006    29770    29771 1
   31007    29770    29774 1
   31008    29771    29772 1
   31009    29772    29773 1
   31010    29772    29819 1
   31011    29773    29774 1
   31012    29773    29775 1
   31013    29775    29776 1
   31014    29775    29780 1
   31015    29776    29777 1
   31016    29776    29820 1
   31017    29777    29778 1
   31018    29778    29779 1
   31019    29779    29780 1
   31020    29779    29783 1
   31021    29780    29781 1
   31022    29781    29782 1
   31023    29782    29783 1
   31024    29784    29785 1
   31025    29785    29786 1
   31026    29785    29899 1
   31027    29786    29821 1
   31028    29787    29788 1
   31029    29787    29822 1
   31030    29787    29823 1
   31031    29788    29789 1
   31032    29788    29795 1
   31033    29788    29824 1
   31034    29789    29790 1
   31035    29789    29825 1
   31036    29789    29826 1
   31037    29790    29791 1
   31038    29790    29827 1
   31039    29790    29828 1
   31040    29791    29792 1
   31041    29791    29829 1
   31042    29791    29830 1
   31043    29792    29793 1
   31044    29792    29831 1
   31045    29792    29832 1
   31046    29793    29794 1
   31047    29793    29833 1
   31048    29793    29834 1
   31049    29794    29835 1
   31050    29794    29836 1
   31051    29794    29837 1
   31052    29795    29796 1
   31053    29795    29838 1
   31054    29795    29839 1
   31055    29796    29797 1
   31056    29796    29840 1
   31057    29796    29841 1
   31058    29797    29798 1
   31059    29797    29842 1
   31060    29797    29843 1
   31061    29798    29799 1
   31062    29798    29844 1
   31063    29798    29845 1
   31064    29799    29800 1
   31065    29799    29846 1
   31066    29799    29847 1
   31067    29800    29801 1
   31068    29800    29848 1
   31069    29800    29849 1
   31070    29801    29802 1
   31071    29801    29850 1
   31072    29801    29851 1
   31073    29802    29852 1
   31074    29802    29853 1
   31075    29802    29854 1
   31076    29803    29804 1
   31077    29803    29855 1
   31078    29803    29856 1
   31079    29804    29805 1
   31080    29804    29811 1
   31081    29804    29857 1
   31082    29805    29806 1
   31083    29805    29858 1
   31084    29805    29859 1
   31085    29806    29807 1
   31086    29806    29860 1
   31087    29806    29861 1
   31088    29807    29808 1
   31089    29807    29862 1
   31090    29807    29863 1
   31091    29808    29809 1
   31092    29808    29864 1
   31093    29808    29865 1
   31094    29809    29810 1
   31095    29809    29866 1
   31096    29809    29867 1
   31097    29810    29868 1
   31098    29810    29869 1
   31099    29810    29870 1
   31100    29811    29812 1
   31101    29811    29871 1
   31102    29811    29872 1
   31103    29812    29813 1
   31104    29812    29873 1
   31105    29812    29874 1
   31106    29813    29814 1
   31107    29813    29875 1
   31108    29813    29876 1
   31109    29814    29815 1
   31110    29814    29877 1
   31111    29814    29878 1
   31112    29815    29816 1
   31113    29815    29879 1
   31114    29815    29880 1
   31115    29816    29817 1
   31116    29816    29881 1
   31117    29816    29882 1
   31118    29817    29818 1
   31119    29817    29883 1
   31120    29817    29884 1
   31121    29818    29885 1
   31122    29818    29886 1
   31123    29818    29887 1
   31124    29888    29889 1
   31125    29888    29908 1
   31126    29888    29924 1
   31127    29888    29892 1
   31128    29889    29890 1
   31129    29889    29907 1
   31130    29890    29891 1
   31131    29890    29905 1
   31132    29891    29892 1
   31133    29891    29895 1
   31134    29892    29893 1
   31135    29893    29894 1
   31136    29893    29940 1
   31137    29894    29895 1
   31138    29894    29896 1
   31139    29896    29897 1
   31140    29896    29901 1
   31141    29897    29898 1
   31142    29897    29941 1
   31143    29898    29899 1
   31144    29899    29900 1
   31145    29900    29901 1
   31146    29900    29904 1
   31147    29901    29902 1
   31148    29902    29903 1
   31149    29903    29904 1
   31150    29905    29906 1
   31151    29906    29907 1
   31152    29906    30020 1
   31153    29907    29942 1
   31154    29908    29909 1
   31155    29908    29943 1
   31156    29908    29944 1
   31157    29909    29910 1
   31158    29909    29916 1
   31159    29909    29945 1
   31160    29910    29911 1
   31161    29910    29946 1
   31162    29910    29947 1
   31163    29911    29912 1
   31164    29911    29948 1
   31165    29911    29949 1
   31166    29912    29913 1
   31167    29912    29950 1
   31168    29912    29951 1
   31169    29913    29914 1
   31170    29913    29952 1
   31171    29913    29953 1
   31172    29914    29915 1
   31173    29914    29954 1
   31174    29914    29955 1
   31175    29915    29956 1
   31176    29915    29957 1
   31177    29915    29958 1
   31178    29916    29917 1
   31179    29916    29959 1
   31180    29916    29960 1
   31181    29917    29918 1
   31182    29917    29961 1
   31183    29917    29962 1
   31184    29918    29919 1
   31185    29918    29963 1
   31186    29918    29964 1
   31187    29919    29920 1
   31188    29919    29965 1
   31189    29919    29966 1
   31190    29920    29921 1
   31191    29920    29967 1
   31192    29920    29968 1
   31193    29921    29922 1
   31194    29921    29969 1
   31195    29921    29970 1
   31196    29922    29923 1
   31197    29922    29971 1
   31198    29922    29972 1
   31199    29923    29973 1
   31200    29923    29974 1
   31201    29923    29975 1
   31202    29924    29925 1
   31203    29924    29976 1
   31204    29924    29977 1
   31205    29925    29926 1
   31206    29925    29932 1
   31207    29925    29978 1
   31208    29926    29927 1
   31209    29926    29979 1
   31210    29926    29980 1
   31211    29927    29928 1
   31212    29927    29981 1
   31213    29927    29982 1
   31214    29928    29929 1
   31215    29928    29983 1
   31216    29928    29984 1
   31217    29929    29930 1
   31218    29929    29985 1
   31219    29929    29986 1
   31220    29930    29931 1
   31221    29930    29987 1
   31222    29930    29988 1
   31223    29931    29989 1
   31224    29931    29990 1
   31225    29931    29991 1
   31226    29932    29933 1
   31227    29932    29992 1
   31228    29932    29993 1
   31229    29933    29934 1
   31230    29933    29994 1
   31231    29933    29995 1
   31232    29934    29935 1
   31233    29934    29996 1
   31234    29934    29997 1
   31235    29935    29936 1
   31236    29935    29998 1
   31237    29935    29999 1
   31238    29936    29937 1
   31239    29936    30000 1
   31240    29936    30001 1
   31241    29937    29938 1
   31242    29937    30002 1
   31243    29937    30003 1
   31244    29938    29939 1
   31245    29938    30004 1
   31246    29938    30005 1
   31247    29939    30006 1
   31248    29939    30007 1
   31249    29939    30008 1
   31250    30009    30010 1
   31251    30009    30029 1
   31252    30009    30045 1
   31253    30009    30013 1
   31254    30010    30011 1
   31255    30010    30028 1
   31256    30011    30012 1
   31257    30011    30026 1
   31258    30012    30013 1
   31259    30012    30016 1
   31260    30013    30014 1
   31261    30014    30015 1
   31262    30014    30061 1
   31263    30015    30016 1
   31264    30015    30017 1
   31265    30017    30018 1
   31266    30017    30022 1
   31267    30018    30019 1
   31268    30018    30062 1
   31269    30019    30020 1
   31270    30020    30021 1
   31271    30021    30022 1
   31272    30021    30025 1
   31273    30022    30023 1
   31274    30023    30024 1
   31275    30024    30025 1
   31276    30026    30027 1
   31277    30027    30028 1
   31278    30027    30141 1
   31279    30028    30063 1
   31280    30029    30030 1
   31281    30029    30064 1
   31282    30029    30065 1
   31283    30030    30031 1
   31284    30030    30037 1
   31285    30030    30066 1
   31286    30031    30032 1
   31287    30031    30067 1
   31288    30031    30068 1
   31289    30032    30033 1
   31290    30032    30069 1
   31291    30032    30070 1
   31292    30033    30034 1
   31293    30033    30071 1
   31294    30033    30072 1
   31295    30034    30035 1
   31296    30034    30073 1
   31297    30034    30074 1
   31298    30035    30036 1
   31299    30035    30075 1
   31300    30035    30076 1
   31301    30036    30077 1
   31302    30036    30078 1
   31303    30036    30079 1
   31304    30037    30038 1
   31305    30037    30080 1
   31306    30037    30081 1
   31307    30038    30039 1
   31308    30038    30082 1
   31309    30038    30083 1
   31310    30039    30040 1
   31311    30039    30084 1
   31312    30039    30085 1
   31313    30040    30041 1
   31314    30040    30086 1
   31315    30040    30087 1
   31316    30041    30042 1
   31317    30041    30088 1
   31318    30041    30089 1
   31319    30042    30043 1
   31320    30042    30090 1
   31321    30042    30091 1
   31322    30043    30044 1
   31323    30043    30092 1
   31324    30043    30093 1
   31325    30044    30094 1
   31326    30044    30095 1
   31327    30044    30096 1
   31328    30045    30046 1
   31329    30045    30097 1
   31330    30045    30098 1
   31331    30046    30047 1
   31332    30046    30053 1
   31333    30046    30099 1
   31334    30047    30048 1
   31335    30047    30100 1
   31336    30047    30101 1
   31337    30048    30049 1
   31338    30048    30102 1
   31339    30048    30103 1
   31340    30049    30050 1
   31341    30049    30104 1
   31342    30049    30105 1
   31343    30050    30051 1
   31344    30050    30106 1
   31345    30050    30107 1
   31346    30051    30052 1
   31347    30051    30108 1
   31348    30051    30109 1
   31349    30052    30110 1
   31350    30052    30111 1
   31351    30052    30112 1
   31352    30053    30054 1
   31353    30053    30113 1
   31354    30053    30114 1
   31355    30054    30055 1
   31356    30054    30115 1
   31357    30054    30116 1
   31358    30055    30056 1
   31359    30055    30117 1
   31360    30055    30118 1
   31361    30056    30057 1
   31362    30056    30119 1
   31363    30056    30120 1
   31364    30057    30058 1
   31365    30057    30121 1
   31366    30057    30122 1
   31367    30058    30059 1
   31368    30058    30123 1
   31369    30058    30124 1
   31370    30059    30060 1
   31371    30059    30125 1
   31372    30059    30126 1
   31373    30060    30127 1
   31374    30060    30128 1
   31375    30060    30129 1
   31376    30130    30131 1
   31377    30130    30150 1
   31378    30130    30166 1
   31379    30130    30134 1
   31380    30131    30132 1
   31381    30131    30149 1
   31382    30132    30133 1
   31383    30132    30147 1
   31384    30133    30134 1
   31385    30133    30137 1
   31386    30134    30135 1
   31387    30135    30136 1
   31388    30135    30182 1
   31389    30136    30137 1
   31390    30136    30138 1
   31391    30138    30139 1
   31392    30138    30143 1
   31393    30139    30140 1
   31394    30139    30183 1
   31395    30140    30141 1
   31396    30141    30142 1
   31397    30142    30143 1
   31398    30142    30146 1
   31399    30143    30144 1
   31400    30144    30145 1
   31401    30145    30146 1
   31402    30147    30148 1
   31403    30148    30149 1
   31404    30148    30252 1
   31405    30149    30184 1
   31406    30150    30151 1
   31407    30150    30185 1
   31408    30150    30186 1
   31409    30151    30152 1
   31410    30151    30158 1
   31411    30151    30187 1
   31412    30152    30153 1
   31413    30152    30188 1
   31414    30152    30189 1
   31415    30153    30154 1
   31416    30153    30190 1
   31417    30153    30191 1
   31418    30154    30155 1
   31419    30154    30192 1
   31420    30154    30193 1
   31421    30155    30156 1
   31422    30155    30194 1
   31423    30155    30195 1
   31424    30156    30157 1
   31425    30156    30196 1
   31426    30156    30197 1
   31427    30157    30198 1
   31428    30157    30199 1
   31429    30157    30200 1
   31430    30158    30159 1
   31431    30158    30201 1
   31432    30158    30202 1
   31433    30159    30160 1
   31434    30159    30203 1
   31435    30159    30204 1
   31436    30160    30161 1
   31437    30160    30205 1
   31438    30160    30206 1
   31439    30161    30162 1
   31440    30161    30207 1
   31441    30161    30208 1
   31442    30162    30163 1
   31443    30162    30209 1
   31444    30162    30210 1
   31445    30163    30164 1
   31446    30163    30211 1
   31447    30163    30212 1
   31448    30164    30165 1
   31449    30164    30213 1
   31450    30164    30214 1
   31451    30165    30215 1
   31452    30165    30216 1
   31453    30165    30217 1
   31454    30166    30167 1
   31455    30166    30218 1
   31456    30166    30219 1
   31457    30167    30168 1
   31458    30167    30174 1
   31459    30167    30220 1
   31460    30168    30169 1
   31461    30168    30221 1
   31462    30168    30222 1
   31463    30169    30170 1
   31464    30169    30223 1
   31465    30169    30224 1
   31466    30170    30171 1
   31467    30170    30225 1
   31468    30170    30226 1
   31469    30171    30172 1
   31470    30171    30227 1
   31471    30171    30228 1
   31472    30172    30173 1
   31473    30172    30229 1
   31474    30172    30230 1
   31475    30173    30231 1
   31476    30173    30232 1
   31477    30173    30233 1
   31478    30174    30175 1
   31479    30174    30234 1
   31480    30174    30235 1
   31481    30175    30176 1
   31482    30175    30236 1
   31483    30175    30237 1
   31484    30176    30177 1
   31485    30176    30238 1
   31486    30176    30239 1
   31487    30177    30178 1
   31488    30177    30240 1
   31489    30177    30241 1
   31490    30178    30179 1
   31491    30178    30242 1
   31492    30178    30243 1
   31493    30179    30180 1
   31494    30179    30244 1
   31495    30179    30245 1
   31496    30180    30181 1
   31497    30180    30246 1
   31498    30180    30247 1
   31499    30181    30248 1
   31500    30181    30249 1
   31501    30181    30250 1
@<TRIPOS>SUBSTRUCTURE
       1 RES             1 RESIDUE    0 **** ROOT      0
