@<TRIPOS>MOLECULE
Compound
124 128 1 0 1
SMALL
NO_CHARGES
@<TRIPOS>CRYSIN
   27.1738    27.9183     9.6191    90.0000    90.0000    90.0000  1  1
@<TRIPOS>ATOM
       1 C0           0.6021     2.9655     0.2248 C0            1 Compound
       2 C0          -0.6896     3.3140    -0.0722 C0            1 Compound
       3 C0          -1.3969     2.1949    -0.3605 C0            1 Compound
       4 C0          -0.6914     1.1098    -0.2817 C0            1 Compound
       5 C0           0.6394     1.4337     0.2043 C0            1 Compound
       6 C0           0.4537     0.7153     1.5131 C0            1 Compound
       7 C0          -0.4632    -0.3396     1.4337 C0            1 Compound
       8 S1          -1.2504    -0.5593    -0.1734 S1            1 Compound
       9 S1          -3.0024     2.4542    -0.6180 S1            1 Compound
      10 C0          -2.8781     4.1290    -0.3756 C0            1 Compound
      11 C0          -1.5099     4.4684    -0.1282 C0            1 Compound
      12 C0          -4.0782     5.0261    -0.3230 C0            1 Compound
      13 C0          -3.9364     6.4131    -0.1234 C0            1 Compound
      14 N2          -5.0253     7.2301    -0.0224 N2            1 Compound
      15 C0          -6.3029     6.7689    -0.1034 C0            1 Compound
      16 C0          -6.5179     5.4116    -0.2990 C0            1 Compound
      17 C0          -5.4094     4.5311    -0.4124 C0            1 Compound
      18 N2          -5.7459     3.2218    -0.5877 N2            1 Compound
      19 S1          -7.3977     3.2552    -0.5919 S1            1 Compound
      20 N2          -7.7519     4.8524    -0.3798 N2            1 Compound
      21 C0           1.9044     3.7532     0.5796 C0            1 Compound
      22 C3           3.1722     3.2006    -0.2320 C3            1 Compound
      23 C3           4.2703     2.3446     0.5179 C3            1 Compound
      24 C3           5.5527     2.1461    -0.3687 C3            1 Compound
      25 C3           6.7156     1.4273     0.3749 C3            1 Compound
      26 C3           7.9214     1.0935    -0.5243 C3            1 Compound
      27 C3           9.0457     0.4268     0.3016 C3            1 Compound
      28 C3          10.2024    -0.0786    -0.5784 C3            1 Compound
      29 C3          11.3480    -0.6527     0.2772 C3            1 Compound
      30 C3          12.4683    -1.2323    -0.6004 C3            1 Compound
      31 C3          13.6385    -1.7378     0.2436 C3            1 Compound
      32 C3           3.7671     0.9657     1.0368 C3            1 Compound
      33 C3           3.4451    -0.1095    -0.0460 C3            1 Compound
      34 C3           2.9791    -1.4271     0.6055 C3            1 Compound
      35 C3           2.5120    -2.4745    -0.4274 C3            1 Compound
      36 C3           2.0005    -3.7362     0.2912 C3            1 Compound
      37 C3           1.4897    -4.7899    -0.6895 C3            1 Compound
      38 C3           1.7951     5.3328     0.8275 C3            1 Compound
      39 C3           2.3771     6.2661    -0.2897 C3            1 Compound
      40 C3           3.8927     6.5866    -0.0298 C3            1 Compound
      41 C3           4.6611     6.8599    -1.3367 C3            1 Compound
      42 C3           6.0224     7.5609    -1.1760 C3            1 Compound
      43 C3           6.9981     6.9566    -0.1540 C3            1 Compound
      44 C3           8.3554     7.6774    -0.2673 C3            1 Compound
      45 C3           9.3396     7.2519     0.8167 C3            1 Compound
      46 C3           1.5636     7.5855    -0.6094 C3            1 Compound
      47 C3           1.6511     8.8236     0.3429 C3            1 Compound
      48 C3           0.9366    10.0602    -0.2870 C3            1 Compound
      49 C3           1.1253    11.3835     0.4995 C3            1 Compound
      50 C3           0.4674    12.5773    -0.2397 C3            1 Compound
      51 C3           0.6924    13.9293     0.4731 C3            1 Compound
      52 C3           0.0333    15.0884    -0.3026 C3            1 Compound
      53 C3           0.2599    16.4407     0.3776 C3            1 Compound
      54 H4           0.9607     0.9498     2.4365 H4            1 Compound
      55 H5          -0.7065    -0.9591     2.2852 H5            1 Compound
      56 H4          -1.1835     5.4700     0.0826 H4            1 Compound
      57 H5          -2.9555     6.8617    -0.0326 H5            1 Compound
      58 H5          -7.1403     7.4462    -0.0082 H5            1 Compound
      59 H6           2.8261     2.6503    -1.1322 H6            1 Compound
      60 H6           3.7110     4.0520    -0.6611 H6            1 Compound
      61 H6           4.5731     2.9470     1.4021 H6            1 Compound
      62 H6           5.9265     3.1378    -0.7038 H6            1 Compound
      63 H6           5.2851     1.5753    -1.2822 H6            1 Compound
      64 H6           7.0387     2.0642     1.2265 H6            1 Compound
      65 H6           6.3815     0.4490     0.7691 H6            1 Compound
      66 H6           7.5811     0.3915    -1.3178 H6            1 Compound
      67 H6           8.3158     2.0141    -1.0046 H6            1 Compound
      68 H6           9.4290     1.1662     1.0385 H6            1 Compound
      69 H6           8.6368    -0.4458     0.8586 H6            1 Compound
      70 H6           9.8139    -0.8707    -1.2561 H6            1 Compound
      71 H6          10.6002     0.7565    -1.1944 H6            1 Compound
      72 H6          11.7615     0.1607     0.9136 H6            1 Compound
      73 H6          10.9600    -1.4589     0.9385 H6            1 Compound
      74 H6          12.0665    -2.0784    -1.2000 H6            1 Compound
      75 H6          12.8477    -0.4518    -1.2945 H6            1 Compound
      76 H6          14.0854    -0.9016     0.8228 H6            1 Compound
      77 H6          13.3032    -2.5298     0.9465 H6            1 Compound
      78 H6          14.4218    -2.1626    -0.4202 H6            1 Compound
      79 H6           2.9118     1.1633     1.6796 H6            1 Compound
      80 H6           4.5133     0.5324     1.7296 H6            1 Compound
      81 H6           2.6672     0.2657    -0.7376 H6            1 Compound
      82 H6           4.3428    -0.3404    -0.6565 H6            1 Compound
      83 H6           2.1332    -1.2233     1.2833 H6            1 Compound
      84 H6           3.8078    -1.8472     1.2132 H6            1 Compound
      85 H6           3.3538    -2.7411    -1.1029 H6            1 Compound
      86 H6           1.6857    -2.0469    -1.0333 H6            1 Compound
      87 H6           1.1638    -3.4608     0.9702 H6            1 Compound
      88 H6           2.8196    -4.1796     0.8979 H6            1 Compound
      89 H6           2.3033    -5.1176    -1.3703 H6            1 Compound
      90 H6           0.6465    -4.3864    -1.2901 H6            1 Compound
      91 H6           1.1246    -5.6742    -0.1235 H6            1 Compound
      92 H6           2.2597     5.6048     1.7998 H6            1 Compound
      93 H6           0.7328     5.5582     0.9852 H6            1 Compound
      94 H6           2.2571     5.6614    -1.2148 H6            1 Compound
      95 H6           4.4180     5.7483     0.4765 H6            1 Compound
      96 H6           3.9768     7.4256     0.6845 H6            1 Compound
      97 H6           4.7950     5.8846    -1.8538 H6            1 Compound
      98 H6           4.0742     7.5163    -2.0077 H6            1 Compound
      99 H6           6.4963     7.5611    -2.1827 H6            1 Compound
     100 H6           5.8435     8.6183    -0.8815 H6            1 Compound
     101 H6           7.1448     5.8704    -0.3370 H6            1 Compound
     102 H6           6.5788     7.0987     0.8666 H6            1 Compound
     103 H6           8.7976     7.4546    -1.2638 H6            1 Compound
     104 H6           8.2137     8.7775    -0.1846 H6            1 Compound
     105 H6           9.5175     6.1574     0.7821 H6            1 Compound
     106 H6           8.9493     7.5352     1.8173 H6            1 Compound
     107 H6          10.3070     7.7768     0.6579 H6            1 Compound
     108 H6           0.4935     7.3223    -0.7617 H6            1 Compound
     109 H6           1.9378     7.9488    -1.5889 H6            1 Compound
     110 H6           2.7130     9.1258     0.4723 H6            1 Compound
     111 H6           1.2230     8.5906     1.3395 H6            1 Compound
     112 H6          -0.1465     9.8419    -0.3974 H6            1 Compound
     113 H6           1.3660    10.2243    -1.3002 H6            1 Compound
     114 H6           2.2129    11.5918     0.6000 H6            1 Compound
     115 H6           0.6859    11.2869     1.5155 H6            1 Compound
     116 H6          -0.6252    12.3935    -0.3312 H6            1 Compound
     117 H6           0.8997    12.6516    -1.2621 H6            1 Compound
     118 H6           0.2625    13.8870     1.4974 H6            1 Compound
     119 H6           1.7843    14.1261     0.5517 H6            1 Compound
     120 H6          -1.0617    14.9124    -0.3788 H6            1 Compound
     121 H6           0.4556    15.1411    -1.3299 H6            1 Compound
     122 H6           1.3448    16.6709     0.4393 H6            1 Compound
     123 H6          -0.1733    16.4428     1.4002 H6            1 Compound
     124 H6          -0.2334    17.2441    -0.2126 H6            1 Compound
@<TRIPOS>BOND
       1        2        1 1
       2       21        1 1
       3        5        1 1
       4        3        2 1
       5       11        2 1
       6        4        3 1
       7        9        3 1
       8        5        4 1
       9        8        4 1
      10        6        5 1
      11        7        6 1
      12       54        6 1
      13        8        7 1
      14       55        7 1
      15       10        9 1
      16       11       10 1
      17       12       10 1
      18       56       11 1
      19       13       12 1
      20       17       12 1
      21       14       13 1
      22       57       13 1
      23       15       14 1
      24       16       15 1
      25       58       15 1
      26       17       16 1
      27       20       16 1
      28       18       17 1
      29       19       18 1
      30       20       19 1
      31       22       21 1
      32       38       21 1
      33       23       22 1
      34       59       22 1
      35       60       22 1
      36       24       23 1
      37       32       23 1
      38       61       23 1
      39       25       24 1
      40       62       24 1
      41       63       24 1
      42       26       25 1
      43       64       25 1
      44       65       25 1
      45       27       26 1
      46       66       26 1
      47       67       26 1
      48       28       27 1
      49       68       27 1
      50       69       27 1
      51       29       28 1
      52       70       28 1
      53       71       28 1
      54       30       29 1
      55       72       29 1
      56       73       29 1
      57       31       30 1
      58       74       30 1
      59       75       30 1
      60       76       31 1
      61       77       31 1
      62       78       31 1
      63       33       32 1
      64       79       32 1
      65       80       32 1
      66       34       33 1
      67       81       33 1
      68       82       33 1
      69       35       34 1
      70       83       34 1
      71       84       34 1
      72       36       35 1
      73       85       35 1
      74       86       35 1
      75       37       36 1
      76       87       36 1
      77       88       36 1
      78       89       37 1
      79       90       37 1
      80       91       37 1
      81       39       38 1
      82       92       38 1
      83       93       38 1
      84       40       39 1
      85       46       39 1
      86       94       39 1
      87       41       40 1
      88       95       40 1
      89       96       40 1
      90       42       41 1
      91       97       41 1
      92       98       41 1
      93       43       42 1
      94       99       42 1
      95      100       42 1
      96       44       43 1
      97      101       43 1
      98      102       43 1
      99       45       44 1
     100      103       44 1
     101      104       44 1
     102      105       45 1
     103      106       45 1
     104      107       45 1
     105       47       46 1
     106      108       46 1
     107      109       46 1
     108       48       47 1
     109      110       47 1
     110      111       47 1
     111       49       48 1
     112      112       48 1
     113      113       48 1
     114       50       49 1
     115      114       49 1
     116      115       49 1
     117       51       50 1
     118      116       50 1
     119      117       50 1
     120       52       51 1
     121      118       51 1
     122      119       51 1
     123       53       52 1
     124      120       52 1
     125      121       52 1
     126      122       53 1
     127      123       53 1
     128      124       53 1
@<TRIPOS>SUBSTRUCTURE
       1 Compound        1 RESIDUE    0 **** ROOT      0
