@<TRIPOS>MOLECULE
Compound
318 327 1 0 1
SMALL
NO_CHARGES
@<TRIPOS>CRYSIN
   55.4098    69.3506     8.9865    90.0000    90.0000    90.0000  1  1
@<TRIPOS>ATOM
       1 C0           1.2263     2.8080    -0.2637 C0            1 Compound
       2 C1           0.8399     1.4337     0.0955 C1            1 Compound
       3 C1          -0.3803     1.0835    -0.3452 C1            1 Compound
       4 S2          -0.8638    -0.4952    -0.0186 S2            1 Compound
       5 C1           0.6586    -1.0358     0.4983 C1            1 Compound
       6 C1           1.4959     0.1827     0.5432 C1            1 Compound
       7 C1           0.9441    -2.5929     0.6553 C1            1 Compound
       8 C1          -0.1061    -3.5741     0.6394 C1            1 Compound
       9 C1           0.0966    -5.0100     0.7112 C1            1 Compound
      10 F3          -0.9995    -5.8061     0.7033 F3            1 Compound
      11 C1           1.3830    -5.6170     0.8024 C1            1 Compound
      12 C1           1.6346    -7.2081     0.9192 C1            1 Compound
      13 C1           0.8070    -8.3311     0.7449 C1            1 Compound
      14 C1           1.4304    -9.7591     0.9952 C1            1 Compound
      15 C0           1.2865   -11.0289     0.2795 C0            1 Compound
      16 C1           2.7949   -11.2441    -0.0817 C1            1 Compound
      17 C1           3.5410   -10.3505     0.6267 C1            1 Compound
      18 S2           5.1758   -10.5794     0.5439 S2            1 Compound
      19 C1           5.0800   -11.9805    -0.3734 C1            1 Compound
      20 C1           3.6882   -12.2266    -0.6645 C1            1 Compound
      21 C1           6.3262   -12.8388    -0.5235 C1            1 Compound
      22 C1           7.6341   -12.2603    -0.4234 C1            1 Compound
      23 F3           7.8119   -10.9202    -0.3129 F3            1 Compound
      24 C1           8.7996   -13.0501    -0.4298 C1            1 Compound
      25 C1           8.7251   -14.4372    -0.5193 C1            1 Compound
      26 C1           7.4736   -15.0337    -0.6167 C1            1 Compound
      27 N4           7.3088   -16.3779    -0.6745 N4            1 Compound
      28 S2           5.6659   -16.5252    -0.7263 S2            1 Compound
      29 N4           5.1219   -14.9635    -0.6805 N4            1 Compound
      30 C1           6.2735   -14.2475    -0.6282 C1            1 Compound
      31 C1           2.7972    -9.5068     1.5252 C1            1 Compound
      32 S2           3.2912    -7.7628     1.3198 S2            1 Compound
      33 C0           0.0427   -10.8743    -0.6937 C0            1 Compound
      34 C0          -1.4422   -10.8321    -0.0079 C0            1 Compound
      35 C0          -2.6087   -10.2447    -0.9339 C0            1 Compound
      36 C0          -4.2238   -10.4795    -0.8584 C0            1 Compound
      37 C0          -5.3556    -9.9524     0.1664 C0            1 Compound
      38 C0          -6.8697   -10.0747    -0.4309 C0            1 Compound
      39 C0          -8.1877    -9.7034     0.4348 C0            1 Compound
      40 C0          -9.6132    -9.7682    -0.3407 C0            1 Compound
      41 C0         -10.9811    -9.4827     0.4748 C0            1 Compound
      42 C0         -12.3765    -9.5578    -0.3372 C0            1 Compound
      43 C0         -13.7364    -9.2829     0.4849 C0            1 Compound
      44 C0         -15.1522    -9.3084    -0.2947 C0            1 Compound
      45 C0         -15.4313   -10.6862    -0.9774 C0            1 Compound
      46 C0         -15.6619   -11.8530     0.0105 C0            1 Compound
      47 C0         -15.9622   -13.1720    -0.7130 C0            1 Compound
      48 C0         -16.1700   -14.3067     0.2916 C0            1 Compound
      49 C0         -16.4088    -8.8828     0.6105 C0            1 Compound
      50 C0         -17.7831    -8.6418    -0.1387 C0            1 Compound
      51 C0         -19.0550    -8.5326     0.7781 C0            1 Compound
      52 C0         -20.3190    -8.0345    -0.0021 C0            1 Compound
      53 C0         -21.6640    -8.6443     0.4701 C0            1 Compound
      54 C0         -22.8420    -8.1629    -0.3967 C0            1 Compound
      55 C0           1.0383   -12.4761     1.0292 C0            1 Compound
      56 C0           0.8158   -13.8726     0.1417 C0            1 Compound
      57 C0           0.9883   -15.3739     0.7973 C0            1 Compound
      58 C0           0.5760   -16.7241    -0.0558 C0            1 Compound
      59 C0           0.7100   -18.2135     0.6324 C0            1 Compound
      60 C0           0.2039   -19.5647    -0.1555 C0            1 Compound
      61 C0           0.2682   -21.0237     0.5940 C0            1 Compound
      62 C0          -0.3046   -22.3581    -0.1587 C0            1 Compound
      63 C0          -0.2241   -23.8205     0.5685 C0            1 Compound
      64 C0          -0.9865   -25.0566    -0.1528 C0            1 Compound
      65 C0          -0.8664   -26.6085     0.3541 C0            1 Compound
      66 C0          -1.9733   -27.5796    -0.3130 C0            1 Compound
      67 C0          -3.3217   -27.4052     0.4299 C0            1 Compound
      68 C0          -4.5715   -27.6744    -0.4297 C0            1 Compound
      69 C0          -5.8339   -27.5416     0.4341 C0            1 Compound
      70 C0          -7.1045   -27.5209    -0.4090 C0            1 Compound
      71 C0          -1.7552   -29.1416    -0.6708 C0            1 Compound
      72 C0          -1.9020   -30.4420     0.2542 C0            1 Compound
      73 C0          -2.0873   -31.7030    -0.6955 C0            1 Compound
      74 C0          -1.9816   -33.2240    -0.3054 C0            1 Compound
      75 C0          -3.0510   -33.9028     0.5851 C0            1 Compound
      76 C0          -2.9814   -35.4459     0.4402 C0            1 Compound
      77 C1           2.4501    -4.6318     0.8012 C1            1 Compound
      78 C1           2.2281    -3.1736     0.7310 C1            1 Compound
      79 N4           3.3504    -2.4111     0.7083 N4            1 Compound
      80 S2           4.5561    -3.5303     0.7776 S2            1 Compound
      81 N4           3.7638    -4.9777     0.8380 N4            1 Compound
      82 C1          -0.9092     1.9905    -1.0827 C1            1 Compound
      83 C1           0.0631     3.1013    -1.3406 C1            1 Compound
      84 C1          -0.9840     4.2068    -1.4449 C1            1 Compound
      85 C1          -2.3037     3.7647    -1.6461 C1            1 Compound
      86 S2          -2.5300     1.9974    -1.7965 S2            1 Compound
      87 C0           2.8373     2.7238    -0.4895 C0            1 Compound
      88 C0           4.3482     2.7747     0.1616 C0            1 Compound
      89 C0           5.6365     2.3729    -0.6685 C0            1 Compound
      90 C0           7.0142     2.5325     0.1646 C0            1 Compound
      91 C0           8.1846     1.4496    -0.0460 C0            1 Compound
      92 C0           9.6825     1.8084     0.4738 C0            1 Compound
      93 C0          10.8894     0.8805    -0.0710 C0            1 Compound
      94 C0          12.4242     1.4052    -0.2990 C0            1 Compound
      95 C0          13.9728     1.8657    -0.5541 C0            1 Compound
      96 C0          15.1695     0.9406    -0.0279 C0            1 Compound
      97 C0          16.6868     1.4493    -0.2313 C0            1 Compound
      98 C0          17.7982     0.3051    -0.3918 C0            1 Compound
      99 C0          17.7099    -0.8785     0.6085 C0            1 Compound
     100 C0          18.0783    -2.2102    -0.0895 C0            1 Compound
     101 C0          17.7846    -3.4340     0.7840 C0            1 Compound
     102 C0          17.9469    -4.7205    -0.0275 C0            1 Compound
     103 C0          19.3044     0.7546    -0.7270 C0            1 Compound
     104 C0          20.5168     0.3602     0.2144 C0            1 Compound
     105 C0          21.9056     0.6456    -0.4584 C0            1 Compound
     106 C0          23.1562     0.2054     0.3631 C0            1 Compound
     107 C0          24.4643     0.3878    -0.4535 C0            1 Compound
     108 C0          25.7311     0.0004     0.3234 C0            1 Compound
     109 C0           1.0338     4.1413     0.7319 C0            1 Compound
     110 C0           1.8762     5.5194     0.3756 C0            1 Compound
     111 C0           1.5589     7.0006     1.0119 C0            1 Compound
     112 C0           2.1412     8.3060     0.2047 C0            1 Compound
     113 C0           2.0327     9.8506     0.7601 C0            1 Compound
     114 C0           2.4730    11.0230    -0.2896 C0            1 Compound
     115 C0           2.5488    12.6736    -0.0148 C0            1 Compound
     116 C0           2.7632    14.3609    -0.1346 C0            1 Compound
     117 C0           2.5978    16.0039    -0.3563 C0            1 Compound
     118 C0           3.7842    17.0468    -0.0531 C0            1 Compound
     119 C0           3.4850    18.6516    -0.1396 C0            1 Compound
     120 C0           4.6713    19.5938     0.4085 C0            1 Compound
     121 C0           5.9709    19.4341    -0.4165 C0            1 Compound
     122 C0           7.2371    19.7773     0.3904 C0            1 Compound
     123 C0           8.4959    19.4651    -0.4294 C0            1 Compound
     124 C0           9.7572    19.5555     0.4240 C0            1 Compound
     125 C0           4.4222    21.1468     0.7778 C0            1 Compound
     126 C0           4.7156    22.3417    -0.2251 C0            1 Compound
     127 C0           4.7331    23.7481     0.4967 C0            1 Compound
     128 C0           5.1918    24.9612    -0.3791 C0            1 Compound
     129 C0           5.2595    26.2868     0.4351 C0            1 Compound
     130 C0           5.7466    27.4914    -0.3896 C0            1 Compound
     131 H5           2.5453     0.1513     0.7954 H5            1 Compound
     132 H5          -1.1286    -3.2309     0.5694 H5            1 Compound
     133 H5          -0.2149    -8.2116     0.4239 H5            1 Compound
     134 H5           3.3805   -13.1208    -1.1716 H5            1 Compound
     135 H5           9.7739   -12.5799    -0.3450 H5            1 Compound
     136 H5           9.6314   -15.0350    -0.4981 H5            1 Compound
     137 H6           0.0399   -11.6920    -1.4444 H6            1 Compound
     138 H6           0.1984    -9.9424    -1.2795 H6            1 Compound
     139 H6          -1.6883   -11.8747     0.2794 H6            1 Compound
     140 H6          -1.4270   -10.2269     0.9226 H6            1 Compound
     141 H6          -2.4196    -9.1529    -1.0232 H6            1 Compound
     142 H6          -2.3626   -10.6826    -1.9248 H6            1 Compound
     143 H6          -4.3918   -11.5706    -0.9709 H6            1 Compound
     144 H6          -4.5458   -10.0083    -1.8117 H6            1 Compound
     145 H6          -5.1745    -8.8801     0.3922 H6            1 Compound
     146 H6          -5.2658   -10.5243     1.1149 H6            1 Compound
     147 H6          -7.0069   -11.1216    -0.7718 H6            1 Compound
     148 H6          -6.8935    -9.4236    -1.3305 H6            1 Compound
     149 H6          -8.0700    -8.6755     0.8378 H6            1 Compound
     150 H6          -8.2314   -10.4039     1.2958 H6            1 Compound
     151 H6          -9.5679    -9.0347    -1.1740 H6            1 Compound
     152 H6          -9.7075   -10.7801    -0.7861 H6            1 Compound
     153 H6         -10.9103    -8.4704     0.9258 H6            1 Compound
     154 H6         -11.0421   -10.2209     1.3018 H6            1 Compound
     155 H6         -12.3327    -8.8175    -1.1647 H6            1 Compound
     156 H6         -12.4484   -10.5687    -0.7875 H6            1 Compound
     157 H6         -13.6439    -8.2679     0.9264 H6            1 Compound
     158 H6         -13.7906   -10.0020     1.3264 H6            1 Compound
     159 H6         -15.0731    -8.5481    -1.1024 H6            1 Compound
     160 H6         -16.3288   -10.6023    -1.6259 H6            1 Compound
     161 H6         -14.5892   -10.9364    -1.6534 H6            1 Compound
     162 H6         -14.7603   -11.9847     0.6423 H6            1 Compound
     163 H6         -16.5345   -11.6432     0.6618 H6            1 Compound
     164 H6         -15.1171   -13.4347    -1.3838 H6            1 Compound
     165 H6         -16.8859   -13.0639    -1.3239 H6            1 Compound
     166 H6         -15.2553   -14.4490     0.9059 H6            1 Compound
     167 H6         -17.0251   -14.0806     0.9650 H6            1 Compound
     168 H6         -16.3863   -15.2533    -0.2469 H6            1 Compound
     169 H6         -16.5610    -9.6376     1.4048 H6            1 Compound
     170 H6         -16.1786    -7.9313     1.1325 H6            1 Compound
     171 H6         -18.0168    -9.4829    -0.8237 H6            1 Compound
     172 H6         -17.6833    -7.7234    -0.7540 H6            1 Compound
     173 H6         -18.9001    -7.8584     1.6490 H6            1 Compound
     174 H6         -19.2429    -9.5530     1.1787 H6            1 Compound
     175 H6         -20.3669    -6.9218     0.0582 H6            1 Compound
     176 H6         -20.2249    -8.3112    -1.0708 H6            1 Compound
     177 H6         -21.8761    -8.4040     1.5338 H6            1 Compound
     178 H6         -21.6096    -9.7498     0.3613 H6            1 Compound
     179 H6         -22.6681    -8.4080    -1.4676 H6            1 Compound
     180 H6         -22.9880    -7.0662    -0.3011 H6            1 Compound
     181 H6         -23.7849    -8.6670    -0.0872 H6            1 Compound
     182 H6           0.1707   -12.3972     1.7116 H6            1 Compound
     183 H6           1.9058   -12.6649     1.7053 H6            1 Compound
     184 H6          -0.2075   -13.8102    -0.2777 H6            1 Compound
     185 H6           1.4827   -13.8689    -0.7330 H6            1 Compound
     186 H6           2.0611   -15.4801     1.0758 H6            1 Compound
     187 H6           0.3943   -15.3951     1.7299 H6            1 Compound
     188 H6           1.1699   -16.7354    -0.9965 H6            1 Compound
     189 H6          -0.4891   -16.6022    -0.3395 H6            1 Compound
     190 H6           0.1372   -18.1738     1.5800 H6            1 Compound
     191 H6           1.7800   -18.3673     0.8907 H6            1 Compound
     192 H6           0.7918   -19.6511    -1.0951 H6            1 Compound
     193 H6          -0.8554   -19.3984    -0.4404 H6            1 Compound
     194 H6           1.3275   -21.2197     0.8609 H6            1 Compound
     195 H6          -0.3065   -20.9298     1.5390 H6            1 Compound
     196 H6          -1.3730   -22.1648    -0.3870 H6            1 Compound
     197 H6           0.2302   -22.4602    -1.1276 H6            1 Compound
     198 H6           0.8469   -24.0848     0.6914 H6            1 Compound
     199 H6          -0.6711   -23.7330     1.5815 H6            1 Compound
     200 H6          -2.0587   -24.7796    -0.1485 H6            1 Compound
     201 H6          -0.6640   -25.0749    -1.2166 H6            1 Compound
     202 H6           0.1504   -26.9584     0.0741 H6            1 Compound
     203 H6          -0.9531   -26.6949     1.4590 H6            1 Compound
     204 H6          -2.0511   -27.1285    -1.3264 H6            1 Compound
     205 H6          -3.3131   -28.0534     1.3337 H6            1 Compound
     206 H6          -3.4190   -26.3574     0.7787 H6            1 Compound
     207 H6          -4.5859   -26.9175    -1.2447 H6            1 Compound
     208 H6          -4.5724   -28.6862    -0.8863 H6            1 Compound
     209 H6          -5.8708   -28.3939     1.1488 H6            1 Compound
     210 H6          -5.8032   -26.5942     1.0134 H6            1 Compound
     211 H6          -7.0992   -26.6280    -1.0711 H6            1 Compound
     212 H6          -7.1910   -28.4380    -1.0275 H6            1 Compound
     213 H6          -7.9873   -27.4513     0.2618 H6            1 Compound
     214 H6          -2.5414   -29.3141    -1.4349 H6            1 Compound
     215 H6          -0.7985   -29.2404    -1.2257 H6            1 Compound
     216 H6          -0.9987   -30.5509     0.8905 H6            1 Compound
     217 H6          -2.7988   -30.3931     0.9094 H6            1 Compound
     218 H6          -3.0674   -31.5862    -1.2105 H6            1 Compound
     219 H6          -1.2955   -31.6053    -1.4669 H6            1 Compound
     220 H6          -0.9728   -33.4660     0.0906 H6            1 Compound
     221 H6          -2.0698   -33.7457    -1.2882 H6            1 Compound
     222 H6          -4.0736   -33.6053     0.2725 H6            1 Compound
     223 H6          -2.8951   -33.6238     1.6478 H6            1 Compound
     224 H6          -1.9731   -35.8436     0.6859 H6            1 Compound
     225 H6          -3.2225   -35.7512    -0.6047 H6            1 Compound
     226 H6          -3.7226   -35.9479     1.1006 H6            1 Compound
     227 H5          -0.7683     5.2628    -1.4075 H5            1 Compound
     228 H7          -3.1530     4.4342    -1.7393 H7            1 Compound
     229 H6           2.7279     2.5527     0.5873 H6            1 Compound
     230 H6           2.9258     1.8597    -1.1855 H6            1 Compound
     231 H6           4.5136     3.7857     0.5885 H6            1 Compound
     232 H6           4.4995     2.0184     0.9954 H6            1 Compound
     233 H6           5.7032     2.9616    -1.6129 H6            1 Compound
     234 H6           5.4973     1.3106    -0.9596 H6            1 Compound
     235 H6           6.7852     2.5544     1.2509 H6            1 Compound
     236 H6           7.3928     3.5472    -0.0865 H6            1 Compound
     237 H6           7.8456     0.5012     0.4356 H6            1 Compound
     238 H6           8.2428     1.2632    -1.1334 H6            1 Compound
     239 H6           9.7012     1.7961     1.5894 H6            1 Compound
     240 H6           9.8875     2.8455     0.1551 H6            1 Compound
     241 H6          10.5433     0.5354    -1.0741 H6            1 Compound
     242 H6          10.9258    -0.0287     0.5697 H6            1 Compound
     243 H6          12.0637     2.1971    -0.9908 H6            1 Compound
     244 H6          12.6673     0.4502    -0.8099 H6            1 Compound
     245 H6          14.1474     1.9154    -1.6632 H6            1 Compound
     246 H6          14.1163     2.8944    -0.1719 H6            1 Compound
     247 H6          15.0590    -0.0208    -0.5706 H6            1 Compound
     248 H6          15.0327     0.7444     1.0547 H6            1 Compound
     249 H6          16.9505     2.1697     0.5715 H6            1 Compound
     250 H6          16.7307     2.0129    -1.1910 H6            1 Compound
     251 H6          17.4199    -0.1089    -1.3526 H6            1 Compound
     252 H6          18.3055    -0.6875     1.5287 H6            1 Compound
     253 H6          16.6579    -0.9969     0.9266 H6            1 Compound
     254 H6          17.4368    -2.3011    -0.9932 H6            1 Compound
     255 H6          19.1352    -2.2293    -0.4253 H6            1 Compound
     256 H6          18.4603    -3.4493     1.6657 H6            1 Compound
     257 H6          16.7316    -3.3900     1.1380 H6            1 Compound
     258 H6          17.6964    -5.5995     0.6019 H6            1 Compound
     259 H6          18.9881    -4.8234    -0.3987 H6            1 Compound
     260 H6          17.2543    -4.7113    -0.8987 H6            1 Compound
     261 H6          19.5515     0.2694    -1.6964 H6            1 Compound
     262 H6          19.3368     1.8481    -0.9221 H6            1 Compound
     263 H6          20.4472     0.8859     1.1895 H6            1 Compound
     264 H6          20.5043    -0.7290     0.4130 H6            1 Compound
     265 H6          21.9379     0.0888    -1.4204 H6            1 Compound
     266 H6          21.9986     1.7301    -0.6798 H6            1 Compound
     267 H6          23.2195     0.8026     1.2984 H6            1 Compound
     268 H6          23.0733    -0.8699     0.6345 H6            1 Compound
     269 H6          24.4190    -0.2489    -1.3646 H6            1 Compound
     270 H6          24.5711     1.4471    -0.7708 H6            1 Compound
     271 H6          25.8642     0.6509     1.2134 H6            1 Compound
     272 H6          25.6962    -1.0615     0.6468 H6            1 Compound
     273 H6          26.6249     0.1287    -0.3292 H6            1 Compound
     274 H6          -0.0200     4.4811     0.7280 H6            1 Compound
     275 H6           1.1045     3.8525     1.7994 H6            1 Compound
     276 H6           2.9420     5.3253     0.6107 H6            1 Compound
     277 H6           1.7995     5.6428    -0.7184 H6            1 Compound
     278 H6           1.9297     7.0147     2.0617 H6            1 Compound
     279 H6           0.4584     7.1313     1.0517 H6            1 Compound
     280 H6           1.6163     8.2861    -0.7739 H6            1 Compound
     281 H6           3.2173     8.1259     0.0062 H6            1 Compound
     282 H6           2.6567     9.9312     1.6747 H6            1 Compound
     283 H6           0.9780    10.0475     1.0494 H6            1 Compound
     284 H6           1.7542    10.8332    -1.1293 H6            1 Compound
     285 H6           3.4866    10.7285    -0.6444 H6            1 Compound
     286 H6           1.5389    12.7144     0.4577 H6            1 Compound
     287 H6           2.6198    12.6564    -1.1369 H6            1 Compound
     288 H6           3.7434    14.3303    -0.6712 H6            1 Compound
     289 H6           1.8239    14.3896    -0.7519 H6            1 Compound
     290 H6           1.7407    16.3269     0.2773 H6            1 Compound
     291 H6           2.3295    16.2431    -1.4199 H6            1 Compound
     292 H6           4.1431    16.8405     0.9730 H6            1 Compound
     293 H6           4.6012    16.8068    -0.7640 H6            1 Compound
     294 H6           2.6132    18.8448     0.5220 H6            1 Compound
     295 H6           3.1941    18.9597    -1.1679 H6            1 Compound
     296 H6           4.8363    19.1218     1.4012 H6            1 Compound
     297 H6           5.9099    20.0253    -1.3569 H6            1 Compound
     298 H6           6.0844    18.3766    -0.7061 H6            1 Compound
     299 H6           7.2562    20.8416     0.7108 H6            1 Compound
     300 H6           7.2382    19.1362     1.2991 H6            1 Compound
     301 H6           8.4359    18.4266    -0.8211 H6            1 Compound
     302 H6           8.5659    20.1667    -1.2890 H6            1 Compound
     303 H6           9.8835    20.5763     0.8397 H6            1 Compound
     304 H6           9.7008    18.8232     1.2592 H6            1 Compound
     305 H6          10.6416    19.3033    -0.1985 H6            1 Compound
     306 H6           5.1514    21.3463     1.5941 H6            1 Compound
     307 H6           3.4220    21.2756     1.2424 H6            1 Compound
     308 H6           3.9853    22.3519    -1.0603 H6            1 Compound
     309 H6           5.7330    22.2152    -0.6490 H6            1 Compound
     310 H6           5.4479    23.6944     1.3476 H6            1 Compound
     311 H6           3.7254    23.9694     0.9089 H6            1 Compound
     312 H6           4.4936    25.1012    -1.2316 H6            1 Compound
     313 H6           6.2083    24.7598    -0.7823 H6            1 Compound
     314 H6           5.9603    26.1671     1.2903 H6            1 Compound
     315 H6           4.2543    26.5348     0.8388 H6            1 Compound
     316 H6           5.0637    27.6997    -1.2399 H6            1 Compound
     317 H6           6.7731    27.3220    -0.7791 H6            1 Compound
     318 H6           5.7772    28.4027     0.2517 H6            1 Compound
@<TRIPOS>BOND
       1        2        1 1
       2       87        1 1
       3      109        1 1
       4       83        1 1
       5        3        2 1
       6        6        2 1
       7        4        3 1
       8       82        3 1
       9        5        4 1
      10        6        5 1
      11        7        5 1
      12      131        6 1
      13        8        7 1
      14       78        7 1
      15        9        8 1
      16      132        8 1
      17       10        9 1
      18       11        9 1
      19       12       11 1
      20       77       11 1
      21       13       12 1
      22       32       12 1
      23       14       13 1
      24      133       13 1
      25       15       14 1
      26       31       14 1
      27       16       15 1
      28       33       15 1
      29       55       15 1
      30       17       16 1
      31       20       16 1
      32       18       17 1
      33       31       17 1
      34       19       18 1
      35       20       19 1
      36       21       19 1
      37      134       20 1
      38       22       21 1
      39       30       21 1
      40       23       22 1
      41       24       22 1
      42       25       24 1
      43      135       24 1
      44       26       25 1
      45      136       25 1
      46       27       26 1
      47       30       26 1
      48       28       27 1
      49       29       28 1
      50       30       29 1
      51       32       31 1
      52       34       33 1
      53      137       33 1
      54      138       33 1
      55       35       34 1
      56      139       34 1
      57      140       34 1
      58       36       35 1
      59      141       35 1
      60      142       35 1
      61       37       36 1
      62      143       36 1
      63      144       36 1
      64       38       37 1
      65      145       37 1
      66      146       37 1
      67       39       38 1
      68      147       38 1
      69      148       38 1
      70       40       39 1
      71      149       39 1
      72      150       39 1
      73       41       40 1
      74      151       40 1
      75      152       40 1
      76       42       41 1
      77      153       41 1
      78      154       41 1
      79       43       42 1
      80      155       42 1
      81      156       42 1
      82       44       43 1
      83      157       43 1
      84      158       43 1
      85       45       44 1
      86       49       44 1
      87      159       44 1
      88       46       45 1
      89      160       45 1
      90      161       45 1
      91       47       46 1
      92      162       46 1
      93      163       46 1
      94       48       47 1
      95      164       47 1
      96      165       47 1
      97      166       48 1
      98      167       48 1
      99      168       48 1
     100       50       49 1
     101      169       49 1
     102      170       49 1
     103       51       50 1
     104      171       50 1
     105      172       50 1
     106       52       51 1
     107      173       51 1
     108      174       51 1
     109       53       52 1
     110      175       52 1
     111      176       52 1
     112       54       53 1
     113      177       53 1
     114      178       53 1
     115      179       54 1
     116      180       54 1
     117      181       54 1
     118       56       55 1
     119      182       55 1
     120      183       55 1
     121       57       56 1
     122      184       56 1
     123      185       56 1
     124       58       57 1
     125      186       57 1
     126      187       57 1
     127       59       58 1
     128      188       58 1
     129      189       58 1
     130       60       59 1
     131      190       59 1
     132      191       59 1
     133       61       60 1
     134      192       60 1
     135      193       60 1
     136       62       61 1
     137      194       61 1
     138      195       61 1
     139       63       62 1
     140      196       62 1
     141      197       62 1
     142       64       63 1
     143      198       63 1
     144      199       63 1
     145       65       64 1
     146      200       64 1
     147      201       64 1
     148       66       65 1
     149      202       65 1
     150      203       65 1
     151       67       66 1
     152       71       66 1
     153      204       66 1
     154       68       67 1
     155      205       67 1
     156      206       67 1
     157       69       68 1
     158      207       68 1
     159      208       68 1
     160       70       69 1
     161      209       69 1
     162      210       69 1
     163      211       70 1
     164      212       70 1
     165      213       70 1
     166       72       71 1
     167      214       71 1
     168      215       71 1
     169       73       72 1
     170      216       72 1
     171      217       72 1
     172       74       73 1
     173      218       73 1
     174      219       73 1
     175       75       74 1
     176      220       74 1
     177      221       74 1
     178       76       75 1
     179      222       75 1
     180      223       75 1
     181      224       76 1
     182      225       76 1
     183      226       76 1
     184       78       77 1
     185       81       77 1
     186       79       78 1
     187       80       79 1
     188       81       80 1
     189       83       82 1
     190       86       82 1
     191       84       83 1
     192       85       84 1
     193      227       84 1
     194       86       85 1
     195      228       85 1
     196       88       87 1
     197      229       87 1
     198      230       87 1
     199       89       88 1
     200      231       88 1
     201      232       88 1
     202       90       89 1
     203      233       89 1
     204      234       89 1
     205       91       90 1
     206      235       90 1
     207      236       90 1
     208       92       91 1
     209      237       91 1
     210      238       91 1
     211       93       92 1
     212      239       92 1
     213      240       92 1
     214       94       93 1
     215      241       93 1
     216      242       93 1
     217       95       94 1
     218      243       94 1
     219      244       94 1
     220       96       95 1
     221      245       95 1
     222      246       95 1
     223       97       96 1
     224      247       96 1
     225      248       96 1
     226       98       97 1
     227      249       97 1
     228      250       97 1
     229       99       98 1
     230      103       98 1
     231      251       98 1
     232      100       99 1
     233      252       99 1
     234      253       99 1
     235      101      100 1
     236      254      100 1
     237      255      100 1
     238      102      101 1
     239      256      101 1
     240      257      101 1
     241      258      102 1
     242      259      102 1
     243      260      102 1
     244      104      103 1
     245      261      103 1
     246      262      103 1
     247      105      104 1
     248      263      104 1
     249      264      104 1
     250      106      105 1
     251      265      105 1
     252      266      105 1
     253      107      106 1
     254      267      106 1
     255      268      106 1
     256      108      107 1
     257      269      107 1
     258      270      107 1
     259      271      108 1
     260      272      108 1
     261      273      108 1
     262      110      109 1
     263      274      109 1
     264      275      109 1
     265      111      110 1
     266      276      110 1
     267      277      110 1
     268      112      111 1
     269      278      111 1
     270      279      111 1
     271      113      112 1
     272      280      112 1
     273      281      112 1
     274      114      113 1
     275      282      113 1
     276      283      113 1
     277      115      114 1
     278      284      114 1
     279      285      114 1
     280      116      115 1
     281      286      115 1
     282      287      115 1
     283      117      116 1
     284      288      116 1
     285      289      116 1
     286      118      117 1
     287      290      117 1
     288      291      117 1
     289      119      118 1
     290      292      118 1
     291      293      118 1
     292      120      119 1
     293      294      119 1
     294      295      119 1
     295      121      120 1
     296      125      120 1
     297      296      120 1
     298      122      121 1
     299      297      121 1
     300      298      121 1
     301      123      122 1
     302      299      122 1
     303      300      122 1
     304      124      123 1
     305      301      123 1
     306      302      123 1
     307      303      124 1
     308      304      124 1
     309      305      124 1
     310      126      125 1
     311      306      125 1
     312      307      125 1
     313      127      126 1
     314      308      126 1
     315      309      126 1
     316      128      127 1
     317      310      127 1
     318      311      127 1
     319      129      128 1
     320      312      128 1
     321      313      128 1
     322      130      129 1
     323      314      129 1
     324      315      129 1
     325      316      130 1
     326      317      130 1
     327      318      130 1
@<TRIPOS>SUBSTRUCTURE
       1 Compound        1 RESIDUE    0 **** ROOT      0
