@<TRIPOS>MOLECULE
Compound
124 128 1 0 1
SMALL
NO_CHARGES
@<TRIPOS>CRYSIN
   21.2262    19.5214    19.2445    90.0000    90.0000    90.0000  1  1
@<TRIPOS>ATOM
       1 C0           9.8392     9.9022     9.3735 C0            1 Compound
       2 C0           8.7211    10.6938    10.1574 C0            1 Compound
       3 C0           9.3136    11.5045    11.0696 C0            1 Compound
       4 S1           8.2310    12.5022    11.8962 S1            1 Compound
       5 C0           6.8707    11.8716    11.0958 C0            1 Compound
       6 C0           7.3176    10.8793    10.2254 C0            1 Compound
       7 C0          10.7302    11.3059    11.0600 C0            1 Compound
       8 C0          11.0613    10.4251    10.1332 C0            1 Compound
       9 C0          12.4886    10.2306    10.0975 C0            1 Compound
      10 C0          13.1255    10.9867    11.0673 C0            1 Compound
      11 S1          12.0284    12.0216    12.0500 S1            1 Compound
      12 H2           6.5900    10.3994     9.6648 H2            1 Compound
      13 H2          13.0025     9.6167     9.4163 H2            1 Compound
      14 N3           3.1000    12.0064    10.5221 N3            1 Compound
      15 C0           4.3966    11.5766    10.5312 C0            1 Compound
      16 C0           5.4282    12.3221    11.1637 C0            1 Compound
      17 C0           5.0360    13.5261    11.7786 C0            1 Compound
      18 N3           5.8813    14.3797    12.4056 N3            1 Compound
      19 S1           4.8707    15.6031    12.8787 S1            1 Compound
      20 N3           3.3878    15.1298    12.3314 N3            1 Compound
      21 C0           3.6690    13.9434    11.7348 C0            1 Compound
      22 C0           2.7171    13.1642    11.0974 C0            1 Compound
      23 H4           4.5811    10.6493    10.0378 H4            1 Compound
      24 C5           2.7965    17.0269     6.1809 C5            1 Compound
      25 C5           3.6948    16.6564     7.3612 C5            1 Compound
      26 C5           3.9028    15.1378     7.5144 C5            1 Compound
      27 C5           4.6845    14.5021     6.3471 C5            1 Compound
      28 C5           4.8984    12.9935     6.5751 C5            1 Compound
      29 C5           5.7939    12.3687     5.4756 C5            1 Compound
      30 C5           6.1118    10.8507     5.6488 C5            1 Compound
      31 C5           6.6329    10.5747     7.0577 C5            1 Compound
      32 C5           7.3558     9.2325     7.3866 C5            1 Compound
      33 C5           6.5362     7.9027     7.5828 C5            1 Compound
      34 C5           5.8349     7.9906     8.9671 C5            1 Compound
      35 C5           4.9339     6.9140     9.5822 C5            1 Compound
      36 C5           4.5945     7.4384    11.0133 C5            1 Compound
      37 C5           3.4757     6.7312    11.7768 C5            1 Compound
      38 C5           3.8029     5.3010    12.1708 C5            1 Compound
      39 C5           8.8194     9.1670     6.9444 C5            1 Compound
      40 C0           9.8303     8.8257     8.1319 C0            1 Compound
      41 C5          11.1975     8.3860     7.4711 C5            1 Compound
      42 C5          11.6368     6.9082     7.7546 C5            1 Compound
      43 C5          12.4731     6.7420     9.0554 C5            1 Compound
      44 C5          13.9543     7.1624     8.9391 C5            1 Compound
      45 C5          14.6636     7.2640    10.2993 C5            1 Compound
      46 C5          14.9408     5.9159    10.9880 C5            1 Compound
      47 C5          15.8843     4.9779    10.2057 C5            1 Compound
      48 C5          17.2577     5.5963     9.9249 C5            1 Compound
      49 C5          12.2770     6.1888     6.5106 C5            1 Compound
      50 C5          13.3445     6.9846     5.7126 C5            1 Compound
      51 C5          14.0728     6.1630     4.6300 C5            1 Compound
      52 C5          13.1617     5.6039     3.5211 C5            1 Compound
      53 C5          13.9440     4.8524     2.4191 C5            1 Compound
      54 C5          14.8555     5.7754     1.5831 C5            1 Compound
      55 C5          15.6521     5.0384     0.4914 C5            1 Compound
      56 C5          14.7767     4.4055    -0.5906 C5            1 Compound
      57 H6           3.2546    16.7270     5.2172 H6            1 Compound
      58 H6           2.6480    18.1276     6.1608 H6            1 Compound
      59 H6           1.8042    16.5393     6.2873 H6            1 Compound
      60 H6           4.6766    17.1681     7.2581 H6            1 Compound
      61 H6           3.2075    17.0344     8.2869 H6            1 Compound
      62 H6           4.4814    14.9762     8.4517 H6            1 Compound
      63 H6           2.9150    14.6421     7.6305 H6            1 Compound
      64 H6           5.6736    15.0075     6.2773 H6            1 Compound
      65 H6           4.1418    14.6425     5.3901 H6            1 Compound
      66 H6           5.3979    12.8866     7.5620 H6            1 Compound
      67 H6           3.9169    12.4749     6.6101 H6            1 Compound
      68 H6           5.3327    12.5255     4.4771 H6            1 Compound
      69 H6           6.7606    12.9202     5.4916 H6            1 Compound
      70 H6           5.2107    10.2267     5.4678 H6            1 Compound
      71 H6           6.8851    10.5893     4.8956 H6            1 Compound
      72 H6           5.7616    10.6995     7.7267 H6            1 Compound
      73 H6           7.3622    11.3822     7.3012 H6            1 Compound
      74 H6           7.6241     9.4140     8.3673 H6            1 Compound
      75 H6           5.8294     7.7485     6.7406 H6            1 Compound
      76 H6           7.2330     7.0374     7.6303 H6            1 Compound
      77 H6           6.6574     8.1126     9.7103 H6            1 Compound
      78 H6           5.1992     8.8883     8.9155 H6            1 Compound
      79 H6           5.4482     5.9309     9.6462 H6            1 Compound
      80 H6           4.0160     6.8181     8.9653 H6            1 Compound
      81 H6           5.5197     7.4456    11.6358 H6            1 Compound
      82 H6           4.2488     8.4904    10.9297 H6            1 Compound
      83 H6           2.5415     6.7678    11.1810 H6            1 Compound
      84 H6           3.3075     7.3048    12.7188 H6            1 Compound
      85 H6           4.7162     5.2740    12.8020 H6            1 Compound
      86 H6           3.9473     4.6745    11.2682 H6            1 Compound
      87 H6           2.9544     4.8961    12.7619 H6            1 Compound
      88 H6           9.1539    10.1532     6.5525 H6            1 Compound
      89 H6           8.8617     8.4484     6.0976 H6            1 Compound
      90 H6          11.0063     8.3774     6.3807 H6            1 Compound
      91 H6          12.0040     9.1380     7.5284 H6            1 Compound
      92 H6          10.6973     6.3385     7.9403 H6            1 Compound
      93 H6          11.9606     7.3187     9.8550 H6            1 Compound
      94 H6          12.4632     5.6723     9.3584 H6            1 Compound
      95 H6          14.5107     6.4684     8.2815 H6            1 Compound
      96 H6          14.0226     8.1500     8.4591 H6            1 Compound
      97 H6          15.6285     7.7915    10.1572 H6            1 Compound
      98 H6          14.0571     7.9043    10.9753 H6            1 Compound
      99 H6          13.9825     5.3891    11.1807 H6            1 Compound
     100 H6          15.4085     6.1299    11.9737 H6            1 Compound
     101 H6          15.4220     4.6660     9.2467 H6            1 Compound
     102 H6          16.0361     4.0616    10.8152 H6            1 Compound
     103 H6          17.7449     5.9080    10.8732 H6            1 Compound
     104 H6          17.9057     4.8502     9.4196 H6            1 Compound
     105 H6          17.1737     6.4725     9.2493 H6            1 Compound
     106 H6          11.4582     5.9766     5.7889 H6            1 Compound
     107 H6          12.6820     5.2076     6.8422 H6            1 Compound
     108 H6          14.1390     7.3658     6.3676 H6            1 Compound
     109 H6          12.8748     7.8693     5.2346 H6            1 Compound
     110 H6          14.8185     6.8487     4.1809 H6            1 Compound
     111 H6          14.6207     5.3233     5.1113 H6            1 Compound
     112 H6          12.5740     6.4238     3.0551 H6            1 Compound
     113 H6          12.4533     4.8820     3.9806 H6            1 Compound
     114 H6          14.5458     4.0386     2.8799 H6            1 Compound
     115 H6          13.1946     4.3899     1.7436 H6            1 Compound
     116 H6          15.6065     6.2534     2.2433 H6            1 Compound
     117 H6          14.2443     6.5764     1.1126 H6            1 Compound
     118 H6          16.3178     5.7800    -0.0028 H6            1 Compound
     119 H6          16.2926     4.2572     0.9548 H6            1 Compound
     120 H6          14.1335     3.6062    -0.1707 H6            1 Compound
     121 H6          15.4268     3.9464    -1.3658 H6            1 Compound
     122 H6          14.1420     5.1774    -1.0750 H6            1 Compound
     123 H4          14.1967    10.9708    11.2107 H4            1 Compound
     124 H4           1.6795    13.4725    11.0479 H4            1 Compound
@<TRIPOS>BOND
       1        2        1 1
       2        8        1 1
       3       40        1 1
       4        3        2 1
       5        6        2 1
       6        4        3 1
       7        7        3 1
       8        5        4 1
       9        6        5 1
      10       16        5 1
      11       12        6 1
      12        8        7 1
      13       11        7 1
      14        9        8 1
      15       10        9 1
      16       13        9 1
      17       11       10 1
      18      123       10 1
      19       15       14 1
      20       22       14 1
      21       16       15 1
      22       23       15 1
      23       17       16 1
      24       18       17 1
      25       21       17 1
      26       19       18 1
      27       20       19 1
      28       21       20 1
      29       22       21 1
      30      124       22 1
      31       25       24 1
      32       57       24 1
      33       58       24 1
      34       59       24 1
      35       26       25 1
      36       60       25 1
      37       61       25 1
      38       27       26 1
      39       62       26 1
      40       63       26 1
      41       28       27 1
      42       64       27 1
      43       65       27 1
      44       29       28 1
      45       66       28 1
      46       67       28 1
      47       30       29 1
      48       68       29 1
      49       69       29 1
      50       31       30 1
      51       70       30 1
      52       71       30 1
      53       32       31 1
      54       72       31 1
      55       73       31 1
      56       33       32 1
      57       39       32 1
      58       74       32 1
      59       34       33 1
      60       75       33 1
      61       76       33 1
      62       35       34 1
      63       77       34 1
      64       78       34 1
      65       36       35 1
      66       79       35 1
      67       80       35 1
      68       37       36 1
      69       81       36 1
      70       82       36 1
      71       38       37 1
      72       83       37 1
      73       84       37 1
      74       85       38 1
      75       86       38 1
      76       87       38 1
      77       40       39 1
      78       88       39 1
      79       89       39 1
      80       41       40 1
      81       42       41 1
      82       90       41 1
      83       91       41 1
      84       43       42 1
      85       49       42 1
      86       92       42 1
      87       44       43 1
      88       93       43 1
      89       94       43 1
      90       45       44 1
      91       95       44 1
      92       96       44 1
      93       46       45 1
      94       97       45 1
      95       98       45 1
      96       47       46 1
      97       99       46 1
      98      100       46 1
      99       48       47 1
     100      101       47 1
     101      102       47 1
     102      103       48 1
     103      104       48 1
     104      105       48 1
     105       50       49 1
     106      106       49 1
     107      107       49 1
     108       51       50 1
     109      108       50 1
     110      109       50 1
     111       52       51 1
     112      110       51 1
     113      111       51 1
     114       53       52 1
     115      112       52 1
     116      113       52 1
     117       54       53 1
     118      114       53 1
     119      115       53 1
     120       55       54 1
     121      116       54 1
     122      117       54 1
     123       56       55 1
     124      118       55 1
     125      119       55 1
     126      120       56 1
     127      121       56 1
     128      122       56 1
@<TRIPOS>SUBSTRUCTURE
       1 Compound        1 RESIDUE    0 **** ROOT      0
