@<TRIPOS>MOLECULE
Compound
166 171 1 0 1
SMALL
NO_CHARGES
@<TRIPOS>CRYSIN
   42.6613    28.3355     8.6777    90.0000    90.0000    90.0000  1  1
@<TRIPOS>ATOM
       1 N0           1.1615    -0.0172    -0.2843 N0            1 Compound
       2 C1           0.2773     1.1385    -0.0573 C1            1 Compound
       3 C1          -1.0403     0.7204     0.0825 C1            1 Compound
       4 C1          -2.4789     1.1229     0.3173 C1            1 Compound
       5 O2          -2.8708     2.2451     0.5956 O2            1 Compound
       6 N0          -3.3062     0.0166     0.2916 N0            1 Compound
       7 C1          -2.4114    -1.1173     0.0890 C1            1 Compound
       8 C1          -1.0936    -0.6847    -0.0235 C1            1 Compound
       9 C1           0.3259    -1.1116    -0.2763 C1            1 Compound
      10 O2           0.6908    -2.2243    -0.5840 O2            1 Compound
      11 C1          -2.8486    -2.5605     0.0332 C1            1 Compound
      12 N0          -4.1596    -2.8604    -0.1812 N0            1 Compound
      13 C1          -4.6291    -4.1338    -0.2249 C1            1 Compound
      14 C1          -3.7563    -5.2202    -0.0572 C1            1 Compound
      15 C1          -4.2614    -6.6184    -0.0879 C1            1 Compound
      16 C1          -3.5022    -7.7843     0.0302 C1            1 Compound
      17 C1          -4.2634    -8.9579    -0.0163 C1            1 Compound
      18 C1          -5.6226    -8.7333    -0.1698 C1            1 Compound
      19 S3          -5.8783    -7.0749    -0.2558 S3            1 Compound
      20 C1          -2.4002    -4.9404     0.1612 C1            1 Compound
      21 C1          -1.9503    -3.6237     0.2098 C1            1 Compound
      22 C4          -4.7894     0.0153     0.6832 C4            1 Compound
      23 C4          -5.9970     0.6201    -0.2413 C4            1 Compound
      24 C4          -7.4941     0.3071     0.3585 C4            1 Compound
      25 C4          -8.7999     0.8006    -0.4517 C4            1 Compound
      26 C4         -10.2252     0.9639     0.2897 C4            1 Compound
      27 C4         -11.2032    -0.2239     0.6670 C4            1 Compound
      28 C4         -12.5115    -0.5949    -0.1744 C4            1 Compound
      29 C4         -13.8255     0.2900    -0.0709 C4            1 Compound
      30 C4         -15.1165    -0.4541    -0.6156 C4            1 Compound
      31 C4         -16.4379     0.3964    -0.6361 C4            1 Compound
      32 C4         -17.7636    -0.4238    -0.4624 C4            1 Compound
      33 C4         -18.7360     0.2372     0.5368 C4            1 Compound
      34 C4          -5.8172     2.1591    -0.4972 C4            1 Compound
      35 C4          -6.0708     3.0040     0.7741 C4            1 Compound
      36 C4          -5.6255     4.4763     0.7643 C4            1 Compound
      37 C4          -6.3852     5.4836    -0.1268 C4            1 Compound
      38 C4          -5.9458     6.9018     0.3128 C4            1 Compound
      39 C4          -6.5603     8.0761    -0.4634 C4            1 Compound
      40 C4          -6.1123     9.3978     0.1975 C4            1 Compound
      41 C4          -6.6073    10.6343    -0.5450 C4            1 Compound
      42 C1           0.7569     2.5591    -0.0387 C1            1 Compound
      43 N0           2.0861     2.8223     0.0946 N0            1 Compound
      44 C1           2.5915     4.0896     0.1233 C1            1 Compound
      45 C1           1.7395     5.1938     0.0096 C1            1 Compound
      46 C1           2.2667     6.5987     0.0364 C1            1 Compound
      47 C1           1.5181     7.7732    -0.0476 C1            1 Compound
      48 C1           2.2972     8.9349    -0.0173 C1            1 Compound
      49 C1           3.6570     8.6898     0.0931 C1            1 Compound
      50 S3           3.8914     7.0266     0.1562 S3            1 Compound
      51 C1           0.3645     4.9513    -0.1264 C1            1 Compound
      52 C1          -0.1230     3.6466    -0.1563 C1            1 Compound
      53 C4           2.5512    -0.0213    -0.9079 C4            1 Compound
      54 C4           3.9471    -0.6940    -0.3735 C4            1 Compound
      55 C4           5.1716     0.1919     0.1912 C4            1 Compound
      56 C4           6.6234    -0.4163    -0.1806 C4            1 Compound
      57 C4           7.9390     0.2806     0.3621 C4            1 Compound
      58 C4           9.2868    -0.2960    -0.2514 C4            1 Compound
      59 C4          10.6197     0.2455     0.3913 C4            1 Compound
      60 C4          11.9421    -0.2181    -0.3271 C4            1 Compound
      61 C4          13.2417     0.1846     0.4437 C4            1 Compound
      62 C4          14.5656    -0.1479    -0.3087 C4            1 Compound
      63 C4          15.8153     0.1533     0.5577 C4            1 Compound
      64 C4          17.1366    -0.0831    -0.1885 C4            1 Compound
      65 C4           3.8502    -2.0425     0.4001 C4            1 Compound
      66 C4           3.8245    -3.2961    -0.5003 C4            1 Compound
      67 C4           3.9351    -4.5777     0.3515 C4            1 Compound
      68 C4           4.0139    -5.8527    -0.5063 C4            1 Compound
      69 C4           4.1284    -7.1020     0.3860 C4            1 Compound
      70 C4           4.1929    -8.3969    -0.4388 C4            1 Compound
      71 C4           4.2651    -9.6264     0.4805 C4            1 Compound
      72 C4           4.3074   -10.9262    -0.3201 C4            1 Compound
      73 H5          -5.6849    -4.2895    -0.3889 H5            1 Compound
      74 H6          -2.4283    -7.8095     0.1503 H6            1 Compound
      75 H6          -3.8303    -9.9462     0.0640 H6            1 Compound
      76 H5          -6.3854    -9.4979    -0.2228 H5            1 Compound
      77 H6          -1.6778    -5.7304     0.3106 H6            1 Compound
      78 H6          -0.9138    -3.4662     0.4190 H6            1 Compound
      79 H7          -4.8661     0.4698     1.6935 H7            1 Compound
      80 H7          -5.0972    -1.0260     0.8783 H7            1 Compound
      81 H8          -5.9226     0.1043    -1.2226 H8            1 Compound
      82 H8          -7.5389     0.7790     1.3608 H8            1 Compound
      83 H8          -7.6027    -0.7837     0.5310 H8            1 Compound
      84 H8          -8.9173     0.2433    -1.4044 H8            1 Compound
      85 H8          -8.5688     1.8482    -0.7228 H8            1 Compound
      86 H8         -10.8527     1.6941    -0.2661 H8            1 Compound
      87 H8          -9.9672     1.4734     1.2438 H8            1 Compound
      88 H8         -10.5721    -1.1284     0.7816 H8            1 Compound
      89 H8         -11.6075    -0.0089     1.6827 H8            1 Compound
      90 H8         -12.2598    -0.7616    -1.2401 H8            1 Compound
      91 H8         -12.8289    -1.5745     0.2472 H8            1 Compound
      92 H8         -13.6794     1.2593    -0.5872 H8            1 Compound
      93 H8         -14.0397     0.5036     1.0035 H8            1 Compound
      94 H8         -14.9559    -0.8616    -1.6357 H8            1 Compound
      95 H8         -15.2736    -1.3177     0.0669 H8            1 Compound
      96 H8         -16.5031     0.9752    -1.5879 H8            1 Compound
      97 H8         -16.3943     1.1501     0.1728 H8            1 Compound
      98 H8         -18.2858    -0.5497    -1.4380 H8            1 Compound
      99 H8         -17.5616    -1.4385    -0.0594 H8            1 Compound
     100 H8         -19.6666    -0.3655     0.6400 H8            1 Compound
     101 H8         -19.0193     1.2615     0.2178 H8            1 Compound
     102 H8         -18.2674     0.2928     1.5454 H8            1 Compound
     103 H8          -6.5063     2.5097    -1.2943 H8            1 Compound
     104 H8          -4.7949     2.3251    -0.8847 H8            1 Compound
     105 H8          -7.1441     2.9628     1.0558 H8            1 Compound
     106 H8          -5.4859     2.5535     1.5971 H8            1 Compound
     107 H8          -5.7738     4.8079     1.8163 H8            1 Compound
     108 H8          -4.5381     4.5353     0.5422 H8            1 Compound
     109 H8          -6.1592     5.2989    -1.1994 H8            1 Compound
     110 H8          -7.4817     5.3900     0.0338 H8            1 Compound
     111 H8          -6.2307     7.0218     1.3825 H8            1 Compound
     112 H8          -4.8391     6.9812     0.2330 H8            1 Compound
     113 H8          -7.6704     8.0175    -0.4405 H8            1 Compound
     114 H8          -6.2166     8.0393    -1.5198 H8            1 Compound
     115 H8          -6.5015     9.4349     1.2398 H8            1 Compound
     116 H8          -5.0019     9.4425     0.2377 H8            1 Compound
     117 H8          -6.1878    10.6589    -1.5724 H8            1 Compound
     118 H8          -7.7159    10.6475    -0.5926 H8            1 Compound
     119 H8          -6.2656    11.5447    -0.0046 H8            1 Compound
     120 H5           3.6561     4.2156     0.2293 H5            1 Compound
     121 H6           0.4431     7.8153    -0.1337 H6            1 Compound
     122 H6           1.8760     9.9309    -0.0765 H6            1 Compound
     123 H5           4.4301     9.4454     0.1304 H5            1 Compound
     124 H6          -0.3493     5.7599    -0.2164 H6            1 Compound
     125 H6          -1.1728     3.5132    -0.2857 H6            1 Compound
     126 H7           2.3788    -0.5689    -1.8614 H7            1 Compound
     127 H7           2.8076     0.9818    -1.2922 H7            1 Compound
     128 H8           4.4314    -0.9271    -1.3496 H8            1 Compound
     129 H8           5.0623     0.3254     1.2884 H8            1 Compound
     130 H8           5.1411     1.1968    -0.2802 H8            1 Compound
     131 H8           6.6961    -0.4155    -1.2897 H8            1 Compound
     132 H8           6.6880    -1.4736     0.1481 H8            1 Compound
     133 H8           7.9641     0.1585     1.4666 H8            1 Compound
     134 H8           7.9103     1.3675     0.1321 H8            1 Compound
     135 H8           9.2964    -0.0620    -1.3379 H8            1 Compound
     136 H8           9.3008    -1.4017    -0.1398 H8            1 Compound
     137 H8          10.6152     1.3563     0.3861 H8            1 Compound
     138 H8          10.6527    -0.0988     1.4470 H8            1 Compound
     139 H8          11.9691     0.2309    -1.3440 H8            1 Compound
     140 H8          11.9491    -1.3242    -0.4351 H8            1 Compound
     141 H8          13.2455    -0.3510     1.4178 H8            1 Compound
     142 H8          13.2372     1.2776     0.6440 H8            1 Compound
     143 H8          14.6155     0.4594    -1.2392 H8            1 Compound
     144 H8          14.5910    -1.2236    -0.5877 H8            1 Compound
     145 H8          15.8043    -0.5017     1.4563 H8            1 Compound
     146 H8          15.8025     1.2123     0.8935 H8            1 Compound
     147 H8          17.2236     0.5997    -1.0605 H8            1 Compound
     148 H8          17.2199    -1.1338    -0.5378 H8            1 Compound
     149 H8          17.9947     0.1221     0.4911 H8            1 Compound
     150 H8           4.7700    -2.1624     1.0114 H8            1 Compound
     151 H8           3.0152    -2.0105     1.1301 H8            1 Compound
     152 H8           4.7076    -3.2628    -1.1773 H8            1 Compound
     153 H8           2.9072    -3.3154    -1.1203 H8            1 Compound
     154 H8           4.8597    -4.5241     0.9704 H8            1 Compound
     155 H8           3.0581    -4.6393     1.0312 H8            1 Compound
     156 H8           4.9036    -5.7972    -1.1726 H8            1 Compound
     157 H8           3.1001    -5.9293    -1.1339 H8            1 Compound
     158 H8           5.0452    -7.0265     1.0126 H8            1 Compound
     159 H8           3.2423    -7.1465     1.0563 H8            1 Compound
     160 H8           5.0892    -8.3745    -1.0975 H8            1 Compound
     161 H8           3.2832    -8.4719    -1.0739 H8            1 Compound
     162 H8           5.1756    -9.5679     1.1162 H8            1 Compound
     163 H8           3.3711    -9.6489     1.1414 H8            1 Compound
     164 H8           3.3962   -11.0237    -0.9480 H8            1 Compound
     165 H8           5.2062   -10.9521    -0.9718 H8            1 Compound
     166 H8           4.3496   -11.7907     0.3766 H8            1 Compound
@<TRIPOS>BOND
       1        2        1 1
       2       53        1 1
       3        9        1 1
       4        3        2 1
       5       42        2 1
       6        4        3 1
       7        8        3 1
       8        5        4 1
       9        6        4 1
      10        7        6 1
      11       22        6 1
      12        8        7 1
      13       11        7 1
      14        9        8 1
      15       10        9 1
      16       12       11 1
      17       21       11 1
      18       13       12 1
      19       14       13 1
      20       73       13 1
      21       15       14 1
      22       20       14 1
      23       16       15 1
      24       19       15 1
      25       17       16 1
      26       74       16 1
      27       18       17 1
      28       75       17 1
      29       19       18 1
      30       76       18 1
      31       21       20 1
      32       77       20 1
      33       78       21 1
      34       23       22 1
      35       79       22 1
      36       80       22 1
      37       24       23 1
      38       34       23 1
      39       81       23 1
      40       25       24 1
      41       82       24 1
      42       83       24 1
      43       26       25 1
      44       84       25 1
      45       85       25 1
      46       27       26 1
      47       86       26 1
      48       87       26 1
      49       28       27 1
      50       88       27 1
      51       89       27 1
      52       29       28 1
      53       90       28 1
      54       91       28 1
      55       30       29 1
      56       92       29 1
      57       93       29 1
      58       31       30 1
      59       94       30 1
      60       95       30 1
      61       32       31 1
      62       96       31 1
      63       97       31 1
      64       33       32 1
      65       98       32 1
      66       99       32 1
      67      100       33 1
      68      101       33 1
      69      102       33 1
      70       35       34 1
      71      103       34 1
      72      104       34 1
      73       36       35 1
      74      105       35 1
      75      106       35 1
      76       37       36 1
      77      107       36 1
      78      108       36 1
      79       38       37 1
      80      109       37 1
      81      110       37 1
      82       39       38 1
      83      111       38 1
      84      112       38 1
      85       40       39 1
      86      113       39 1
      87      114       39 1
      88       41       40 1
      89      115       40 1
      90      116       40 1
      91      117       41 1
      92      118       41 1
      93      119       41 1
      94       43       42 1
      95       52       42 1
      96       44       43 1
      97       45       44 1
      98      120       44 1
      99       46       45 1
     100       51       45 1
     101       47       46 1
     102       50       46 1
     103       48       47 1
     104      121       47 1
     105       49       48 1
     106      122       48 1
     107       50       49 1
     108      123       49 1
     109       52       51 1
     110      124       51 1
     111      125       52 1
     112       54       53 1
     113      126       53 1
     114      127       53 1
     115       55       54 1
     116       65       54 1
     117      128       54 1
     118       56       55 1
     119      129       55 1
     120      130       55 1
     121       57       56 1
     122      131       56 1
     123      132       56 1
     124       58       57 1
     125      133       57 1
     126      134       57 1
     127       59       58 1
     128      135       58 1
     129      136       58 1
     130       60       59 1
     131      137       59 1
     132      138       59 1
     133       61       60 1
     134      139       60 1
     135      140       60 1
     136       62       61 1
     137      141       61 1
     138      142       61 1
     139       63       62 1
     140      143       62 1
     141      144       62 1
     142       64       63 1
     143      145       63 1
     144      146       63 1
     145      147       64 1
     146      148       64 1
     147      149       64 1
     148       66       65 1
     149      150       65 1
     150      151       65 1
     151       67       66 1
     152      152       66 1
     153      153       66 1
     154       68       67 1
     155      154       67 1
     156      155       67 1
     157       69       68 1
     158      156       68 1
     159      157       68 1
     160       70       69 1
     161      158       69 1
     162      159       69 1
     163       71       70 1
     164      160       70 1
     165      161       70 1
     166       72       71 1
     167      162       71 1
     168      163       71 1
     169      164       72 1
     170      165       72 1
     171      166       72 1
@<TRIPOS>SUBSTRUCTURE
       1 Compound        1 RESIDUE    0 **** ROOT      0
