@<TRIPOS>MOLECULE
Compound
166 171 1 0 1
SMALL
NO_CHARGES
@<TRIPOS>CRYSIN
   42.7764    28.6687     8.4736    90.0000    90.0000    90.0000  1  1
@<TRIPOS>ATOM
       1 N0           1.2044     0.0464     0.3485 N0            1 Compound
       2 C1           0.2669     1.1589     0.1319 C1            1 Compound
       3 C1          -1.0294     0.6862     0.0671 C1            1 Compound
       4 C1          -2.4777     1.0378    -0.1247 C1            1 Compound
       5 O2          -2.9057     2.1463    -0.3987 O2            1 Compound
       6 N0          -3.2711    -0.0815    -0.0440 N0            1 Compound
       7 C1          -2.3206    -1.2024     0.1579 C1            1 Compound
       8 C1          -1.0279    -0.7250     0.2139 C1            1 Compound
       9 C1           0.4247    -1.0806     0.3965 C1            1 Compound
      10 O2           0.8663    -2.1839     0.6689 O2            1 Compound
      11 C1          -2.7046    -2.6652     0.2263 C1            1 Compound
      12 N0          -3.9956    -3.0114     0.4560 N0            1 Compound
      13 C1          -4.4543    -4.2856     0.4640 C1            1 Compound
      14 C1          -3.5763    -5.3503     0.2372 C1            1 Compound
      15 C1          -4.0909    -6.7445     0.2042 C1            1 Compound
      16 C1          -3.3502    -7.9121     0.0187 C1            1 Compound
      17 C1          -4.1326    -9.0744     0.0112 C1            1 Compound
      18 C1          -5.4879    -8.8386     0.1856 C1            1 Compound
      19 S3          -5.7138    -7.1854     0.3556 S3            1 Compound
      20 C1          -2.2225    -5.0426     0.0241 C1            1 Compound
      21 C1          -1.7871    -3.7110     0.0134 C1            1 Compound
      22 C4          -4.7447    -0.1978    -0.4407 C4            1 Compound
      23 C4          -6.0229     0.6625     0.0991 C4            1 Compound
      24 C4          -7.3660    -0.2012    -0.2314 C4            1 Compound
      25 C4          -8.9121     0.0967    -0.5975 C4            1 Compound
      26 C4         -10.2372     0.4704     0.2228 C4            1 Compound
      27 C4         -11.5046     0.0586    -0.6723 C4            1 Compound
      28 C4         -13.0373     0.4814    -0.6058 C4            1 Compound
      29 C4         -14.0450     0.0745     0.5236 C4            1 Compound
      30 C4         -15.5392     0.0915    -0.0019 C4            1 Compound
      31 C4         -16.6158    -0.0872     1.1037 C4            1 Compound
      32 C4         -18.0416    -0.4846     0.6161 C4            1 Compound
      33 C4         -18.7384     0.4837    -0.3445 C4            1 Compound
      34 C4          -6.0758     2.0527    -0.5976 C4            1 Compound
      35 C4          -6.3135     3.2327     0.3712 C4            1 Compound
      36 C4          -6.2683     4.5662    -0.4009 C4            1 Compound
      37 C4          -6.3843     5.8097     0.5001 C4            1 Compound
      38 C4          -6.2855     7.0856    -0.3581 C4            1 Compound
      39 C4          -6.3949     8.3763     0.4673 C4            1 Compound
      40 C4          -6.2640     9.6061    -0.4475 C4            1 Compound
      41 C4          -6.3915    10.9124     0.3315 C4            1 Compound
      42 C1           0.6807     2.6067     0.0276 C1            1 Compound
      43 N0           1.9879     2.9141    -0.2038 N0            1 Compound
      44 C1           2.4615     4.1848    -0.2617 C1            1 Compound
      45 C1           1.5939     5.2719    -0.0857 C1            1 Compound
      46 C1           2.1158     6.6652    -0.1074 C1            1 Compound
      47 C1           1.3774     7.8413     0.0348 C1            1 Compound
      48 C1           2.1610     9.0027    -0.0013 C1            1 Compound
      49 C1           3.5156     8.7575    -0.1693 C1            1 Compound
      50 S3           3.7389     7.0973    -0.2773 S3            1 Compound
      51 C1           0.2354     4.9934     0.1324 C1            1 Compound
      52 C1          -0.2187     3.6718     0.1912 C1            1 Compound
      53 C4           2.6616     0.1283     0.7602 C4            1 Compound
      54 C4           3.8870    -0.4738    -0.1219 C4            1 Compound
      55 C4           5.3224     0.1557     0.3550 C4            1 Compound
      56 C4           6.6635    -0.2631    -0.4039 C4            1 Compound
      57 C4           8.0079     0.2684     0.2462 C4            1 Compound
      58 C4           9.3420    -0.1255    -0.5083 C4            1 Compound
      59 C4          10.6658     0.2640     0.2570 C4            1 Compound
      60 C4          11.9966    -0.0657    -0.5034 C4            1 Compound
      61 C4          13.2748     0.1967     0.3573 C4            1 Compound
      62 C4          14.6131    -0.0551    -0.3948 C4            1 Compound
      63 C4          15.8390     0.1130     0.5362 C4            1 Compound
      64 C4          17.1756    -0.0763    -0.1953 C4            1 Compound
      65 C4           3.9577    -2.0512    -0.1044 C4            1 Compound
      66 C4           3.9752    -3.4816     0.5422 C4            1 Compound
      67 C4           4.0175    -4.6332    -0.4826 C4            1 Compound
      68 C4           4.0817    -5.9798     0.2662 C4            1 Compound
      69 C4           4.2078    -7.1918    -0.6661 C4            1 Compound
      70 C4           4.2329    -8.4887     0.1620 C4            1 Compound
      71 C4           4.3442    -9.7345    -0.7243 C4            1 Compound
      72 C4           4.3257   -11.0080     0.1205 C4            1 Compound
      73 H5          -5.5090    -4.4514     0.6326 H5            1 Compound
      74 H6          -2.2792    -7.9411    -0.1107 H6            1 Compound
      75 H6          -3.7196   -10.0657    -0.1221 H6            1 Compound
      76 H5          -6.2648    -9.5908     0.2075 H5            1 Compound
      77 H6          -1.4964    -5.8213    -0.1625 H6            1 Compound
      78 H6          -0.7558    -3.5281    -0.2031 H6            1 Compound
      79 H7          -4.7842    -0.1728    -1.5453 H7            1 Compound
      80 H7          -5.0574    -1.2098    -0.2029 H7            1 Compound
      81 H8          -5.9471     0.7871     1.2019 H8            1 Compound
      82 H8          -7.0794    -0.6220    -1.2228 H8            1 Compound
      83 H8          -7.3644    -1.0632     0.4704 H8            1 Compound
      84 H8          -9.1957    -0.9076    -0.9900 H8            1 Compound
      85 H8          -8.9050     0.7779    -1.4756 H8            1 Compound
      86 H8         -10.2328     1.5589     0.4411 H8            1 Compound
      87 H8         -10.3072    -0.0920     1.1802 H8            1 Compound
      88 H8         -11.5018    -1.0532    -0.7196 H8            1 Compound
      89 H8         -11.2383     0.4215    -1.6891 H8            1 Compound
      90 H8         -13.1421     1.5728    -0.7777 H8            1 Compound
      91 H8         -13.4507    -0.0140    -1.5157 H8            1 Compound
      92 H8         -13.8493    -0.9640     0.8662 H8            1 Compound
      93 H8         -13.9166     0.7658     1.3826 H8            1 Compound
      94 H8         -15.7693     1.0369    -0.5412 H8            1 Compound
      95 H8         -15.6407    -0.7458    -0.7285 H8            1 Compound
      96 H8         -16.3002    -0.9101     1.7784 H8            1 Compound
      97 H8         -16.6752     0.8476     1.7035 H8            1 Compound
      98 H8         -18.6953    -0.5826     1.5123 H8            1 Compound
      99 H8         -18.0006    -1.4813     0.1262 H8            1 Compound
     100 H8         -18.1857     0.5580    -1.3021 H8            1 Compound
     101 H8         -18.8543     1.4885     0.1103 H8            1 Compound
     102 H8         -19.7584     0.0934    -0.5725 H8            1 Compound
     103 H8          -6.8313     2.0490    -1.4116 H8            1 Compound
     104 H8          -5.1183     2.2476    -1.1072 H8            1 Compound
     105 H8          -7.2895     3.1226     0.8910 H8            1 Compound
     106 H8          -5.5005     3.2353     1.1313 H8            1 Compound
     107 H8          -7.0938     4.5774    -1.1462 H8            1 Compound
     108 H8          -5.2989     4.6276    -0.9440 H8            1 Compound
     109 H8          -7.3550     5.7934     1.0417 H8            1 Compound
     110 H8          -5.5578     5.8081     1.2452 H8            1 Compound
     111 H8          -7.1009     7.0767    -1.1149 H8            1 Compound
     112 H8          -5.3079     7.0847    -0.8899 H8            1 Compound
     113 H8          -7.3795     8.4010     0.9835 H8            1 Compound
     114 H8          -5.5875     8.4012     1.2317 H8            1 Compound
     115 H8          -7.0583     9.5808    -1.2250 H8            1 Compound
     116 H8          -5.2731     9.5893    -0.9527 H8            1 Compound
     117 H8          -6.2857    11.7710    -0.3667 H8            1 Compound
     118 H8          -7.3872    10.9759     0.8195 H8            1 Compound
     119 H8          -5.5971    10.9848     1.1039 H8            1 Compound
     120 H5           3.5179     4.3337    -0.4310 H5            1 Compound
     121 H6           0.3060     7.8802     0.1653 H6            1 Compound
     122 H6           1.7491     9.9984     0.0964 H6            1 Compound
     123 H5           4.2925     9.5086    -0.2192 H5            1 Compound
     124 H6          -0.4821     5.7876     0.2802 H6            1 Compound
     125 H6          -1.2554     3.5125     0.4019 H6            1 Compound
     126 H7           2.7519    -0.2855     1.7845 H7            1 Compound
     127 H7           2.9263     1.1802     0.9058 H7            1 Compound
     128 H8           3.7421    -0.1333    -1.1710 H8            1 Compound
     129 H8           5.4737    -0.1041     1.4281 H8            1 Compound
     130 H8           5.2560     1.2640     0.3047 H8            1 Compound
     131 H8           6.6023     0.0874    -1.4571 H8            1 Compound
     132 H8           6.7628    -1.3675    -0.4099 H8            1 Compound
     133 H8           8.0672    -0.1457     1.2757 H8            1 Compound
     134 H8           7.9720     1.3761     0.3211 H8            1 Compound
     135 H8           9.3441     0.3611    -1.5073 H8            1 Compound
     136 H8           9.3636    -1.2265    -0.6580 H8            1 Compound
     137 H8          10.6585     1.3548     0.4734 H8            1 Compound
     138 H8          10.6704    -0.2821     1.2235 H8            1 Compound
     139 H8          12.0470     0.5499    -1.4275 H8            1 Compound
     140 H8          12.0028    -1.1378    -0.7955 H8            1 Compound
     141 H8          13.2391    -0.4722     1.2448 H8            1 Compound
     142 H8          13.2758     1.2504     0.7129 H8            1 Compound
     143 H8          14.6976     0.6631    -1.2394 H8            1 Compound
     144 H8          14.6287    -1.0878    -0.8053 H8            1 Compound
     145 H8          15.7857    -0.6380     1.3548 H8            1 Compound
     146 H8          15.8398     1.1280     0.9884 H8            1 Compound
     147 H8          17.3042     0.6924    -0.9869 H8            1 Compound
     148 H8          17.2428    -1.0861    -0.6530 H8            1 Compound
     149 H8          18.0181     0.0309     0.5248 H8            1 Compound
     150 H8           4.2034    -1.8214     0.9487 H8            1 Compound
     151 H8           4.8032    -2.1853    -0.8059 H8            1 Compound
     152 H8           4.9001    -3.6536     1.1686 H8            1 Compound
     153 H8           3.0782    -3.6165     1.1931 H8            1 Compound
     154 H8           4.9313    -4.5312    -1.1111 H8            1 Compound
     155 H8           3.1235    -4.5992    -1.1407 H8            1 Compound
     156 H8           4.9640    -5.9789     0.9456 H8            1 Compound
     157 H8           3.1620    -6.0862     0.8818 H8            1 Compound
     158 H8           5.1463    -7.1110    -1.2584 H8            1 Compound
     159 H8           3.3426    -7.2149    -1.3633 H8            1 Compound
     160 H8           5.0969    -8.4643     0.8634 H8            1 Compound
     161 H8           3.2949    -8.5534     0.7564 H8            1 Compound
     162 H8           5.2908    -9.6987    -1.3058 H8            1 Compound
     163 H8           3.4884    -9.7660    -1.4327 H8            1 Compound
     164 H8           3.3775   -11.0751     0.6964 H8            1 Compound
     165 H8           5.1813   -11.0177     0.8292 H8            1 Compound
     166 H8           4.4012   -11.8977    -0.5397 H8            1 Compound
@<TRIPOS>BOND
       1        2        1 1
       2       53        1 1
       3        9        1 1
       4        3        2 1
       5       42        2 1
       6        4        3 1
       7        8        3 1
       8        5        4 1
       9        6        4 1
      10        7        6 1
      11       22        6 1
      12        8        7 1
      13       11        7 1
      14        9        8 1
      15       10        9 1
      16       12       11 1
      17       21       11 1
      18       13       12 1
      19       14       13 1
      20       73       13 1
      21       15       14 1
      22       20       14 1
      23       16       15 1
      24       19       15 1
      25       17       16 1
      26       74       16 1
      27       18       17 1
      28       75       17 1
      29       19       18 1
      30       76       18 1
      31       21       20 1
      32       77       20 1
      33       78       21 1
      34       23       22 1
      35       79       22 1
      36       80       22 1
      37       24       23 1
      38       34       23 1
      39       81       23 1
      40       25       24 1
      41       82       24 1
      42       83       24 1
      43       26       25 1
      44       84       25 1
      45       85       25 1
      46       27       26 1
      47       86       26 1
      48       87       26 1
      49       28       27 1
      50       88       27 1
      51       89       27 1
      52       29       28 1
      53       90       28 1
      54       91       28 1
      55       30       29 1
      56       92       29 1
      57       93       29 1
      58       31       30 1
      59       94       30 1
      60       95       30 1
      61       32       31 1
      62       96       31 1
      63       97       31 1
      64       33       32 1
      65       98       32 1
      66       99       32 1
      67      100       33 1
      68      101       33 1
      69      102       33 1
      70       35       34 1
      71      103       34 1
      72      104       34 1
      73       36       35 1
      74      105       35 1
      75      106       35 1
      76       37       36 1
      77      107       36 1
      78      108       36 1
      79       38       37 1
      80      109       37 1
      81      110       37 1
      82       39       38 1
      83      111       38 1
      84      112       38 1
      85       40       39 1
      86      113       39 1
      87      114       39 1
      88       41       40 1
      89      115       40 1
      90      116       40 1
      91      117       41 1
      92      118       41 1
      93      119       41 1
      94       43       42 1
      95       52       42 1
      96       44       43 1
      97       45       44 1
      98      120       44 1
      99       46       45 1
     100       51       45 1
     101       47       46 1
     102       50       46 1
     103       48       47 1
     104      121       47 1
     105       49       48 1
     106      122       48 1
     107       50       49 1
     108      123       49 1
     109       52       51 1
     110      124       51 1
     111      125       52 1
     112       54       53 1
     113      126       53 1
     114      127       53 1
     115       55       54 1
     116       65       54 1
     117      128       54 1
     118       56       55 1
     119      129       55 1
     120      130       55 1
     121       57       56 1
     122      131       56 1
     123      132       56 1
     124       58       57 1
     125      133       57 1
     126      134       57 1
     127       59       58 1
     128      135       58 1
     129      136       58 1
     130       60       59 1
     131      137       59 1
     132      138       59 1
     133       61       60 1
     134      139       60 1
     135      140       60 1
     136       62       61 1
     137      141       61 1
     138      142       61 1
     139       63       62 1
     140      143       62 1
     141      144       62 1
     142       64       63 1
     143      145       63 1
     144      146       63 1
     145      147       64 1
     146      148       64 1
     147      149       64 1
     148       66       65 1
     149      150       65 1
     150      151       65 1
     151       67       66 1
     152      152       66 1
     153      153       66 1
     154       68       67 1
     155      154       67 1
     156      155       67 1
     157       69       68 1
     158      156       68 1
     159      157       68 1
     160       70       69 1
     161      158       69 1
     162      159       69 1
     163       71       70 1
     164      160       70 1
     165      161       70 1
     166       72       71 1
     167      162       71 1
     168      163       71 1
     169      164       72 1
     170      165       72 1
     171      166       72 1
@<TRIPOS>SUBSTRUCTURE
       1 Compound        1 RESIDUE    0 **** ROOT      0
