@<TRIPOS>MOLECULE
Compound
166 171 1 0 1
SMALL
NO_CHARGES
@<TRIPOS>CRYSIN
   27.3277    23.0216    15.4177    90.0000    90.0000    90.0000  1  1
@<TRIPOS>ATOM
       1 N0           2.0634    12.6842     9.8244 N0            1 Compound
       2 C1           2.7459    11.4667     9.4742 C1            1 Compound
       3 C1           1.8055    10.5805     9.1188 C1            1 Compound
       4 C1           1.6909     9.1512     8.9517 C1            1 Compound
       5 O2           2.5903     8.3808     8.6493 O2            1 Compound
       6 N0           0.4523     8.7684     9.3919 N0            1 Compound
       7 C1          -0.2625     9.9654     9.8715 C1            1 Compound
       8 C1           0.4468    11.1029     9.1205 C1            1 Compound
       9 C1           0.7281    12.4625     9.6444 C1            1 Compound
      10 O2          -0.1302    13.3179     9.8051 O2            1 Compound
      11 C1          10.1432     9.3655     9.5864 C1            1 Compound
      12 C1           8.9654     9.2011    10.2697 C1            1 Compound
      13 C1           8.3197    10.4714    10.7151 C1            1 Compound
      14 S3           9.3532    11.8554    10.1090 S3            1 Compound
      15 C1          10.5057    10.6776     9.4174 C1            1 Compound
      16 H4          10.7334     8.5326     9.2285 H4            1 Compound
      17 H4           8.5717     8.2215    10.4879 H4            1 Compound
      18 C1          -8.1775    10.8618    10.3671 C1            1 Compound
      19 C1          -6.8222    11.0982    10.3761 C1            1 Compound
      20 C1          -6.0766    10.0672     9.9535 C1            1 Compound
      21 S3          -7.0637     8.6347     9.4771 S3            1 Compound
      22 C1          -8.4946     9.5972     9.9360 C1            1 Compound
      23 H4          -8.9137    11.5910    10.6810 H4            1 Compound
      24 H4          -6.4326    12.0491    10.7041 H4            1 Compound
      25 C1           6.3166    10.1480     9.1135 C1            1 Compound
      26 C1           6.8803    10.6502    10.3028 C1            1 Compound
      27 C1           6.0619    11.3781    11.1633 C1            1 Compound
      28 N0           4.7677    11.6096    10.8414 N0            1 Compound
      29 C1           4.1851    11.1532     9.7096 C1            1 Compound
      30 C1           4.9584    10.3831     8.8229 C1            1 Compound
      31 H4           6.9214     9.5839     8.4155 H4            1 Compound
      32 H5           6.4534    11.7764    12.0914 H5            1 Compound
      33 H4           4.5317    10.0025     7.9043 H4            1 Compound
      34 C1          -3.8245    11.1498    10.3815 C1            1 Compound
      35 C1          -4.5797    10.0696     9.8935 C1            1 Compound
      36 C1          -3.8747     8.9710     9.3593 C1            1 Compound
      37 N0          -2.5121     8.9657     9.3306 N0            1 Compound
      38 C1          -1.7741    10.0011     9.8174 C1            1 Compound
      39 C1          -2.4359    11.1091    10.3518 C1            1 Compound
      40 H4          -4.2851    12.0247    10.8137 H4            1 Compound
      41 H5          -4.4003     8.1097     8.9718 H5            1 Compound
      42 H4          -1.8859    11.9386    10.7613 H4            1 Compound
      43 C6           2.5861    14.0136    10.1781 C6            1 Compound
      44 C6           3.4573    14.2010    11.4616 C6            1 Compound
      45 C6           3.6348    15.7352    11.6748 C6            1 Compound
      46 C6           4.5567    16.1307    12.8432 C6            1 Compound
      47 C6           4.7123    17.6586    12.9832 C6            1 Compound
      48 C6           5.4298    18.3625    11.8100 C6            1 Compound
      49 C6           6.8673    17.8768    11.5366 C6            1 Compound
      50 C6           7.8070    18.0848    12.7395 C6            1 Compound
      51 C6           9.2419    17.5955    12.4871 C6            1 Compound
      52 C6           9.9781    18.3976    11.3995 C6            1 Compound
      53 C6          11.4518    17.9840    11.2496 C6            1 Compound
      54 C6          11.6297    16.5459    10.7607 C6            1 Compound
      55 C6           2.9721    13.4483    12.7418 C6            1 Compound
      56 C6           1.5588    13.7895    13.2624 C6            1 Compound
      57 C6           0.6102    12.5927    13.0860 C6            1 Compound
      58 C6          -0.8599    12.9192    13.3501 C6            1 Compound
      59 C6          -1.1744    13.2098    14.8178 C6            1 Compound
      60 C6          -2.6812    13.4699    14.9732 C6            1 Compound
      61 C6          -3.1157    13.7080    16.4248 C6            1 Compound
      62 C6          -2.9478    12.4686    17.3052 C6            1 Compound
      63 H7           1.7205    14.6997    10.2987 H7            1 Compound
      64 H7           3.1621    14.4044     9.3112 H7            1 Compound
      65 H8           4.4760    13.8421    11.2505 H8            1 Compound
      66 H8           2.6464    16.2156    11.8358 H8            1 Compound
      67 H8           4.0649    16.1456    10.7368 H8            1 Compound
      68 H8           5.5513    15.6494    12.7367 H8            1 Compound
      69 H8           4.1041    15.7784    13.7921 H8            1 Compound
      70 H8           5.2635    17.8712    13.9218 H8            1 Compound
      71 H8           3.7031    18.1101    13.1016 H8            1 Compound
      72 H8           5.4623    19.4520    12.0301 H8            1 Compound
      73 H8           4.8337    18.2411    10.8820 H8            1 Compound
      74 H8           6.8566    16.8053    11.2467 H8            1 Compound
      75 H8           7.2452    18.4574    10.6696 H8            1 Compound
      76 H8           7.4249    17.5001    13.6011 H8            1 Compound
      77 H8           7.8252    19.1594    13.0251 H8            1 Compound
      78 H8           9.8047    17.7088    13.4397 H8            1 Compound
      79 H8           9.2085    16.5169    12.2273 H8            1 Compound
      80 H8           9.4738    18.2862    10.4173 H8            1 Compound
      81 H8           9.9579    19.4724    11.6842 H8            1 Compound
      82 H8          11.9803    18.1142    12.2191 H8            1 Compound
      83 H8          11.9261    18.6596    10.5053 H8            1 Compound
      84 H8          11.2259    15.8181    11.4932 H8            1 Compound
      85 H8          11.1213    16.4068     9.7831 H8            1 Compound
      86 H8          12.7118    16.3329    10.6321 H8            1 Compound
      87 H8           3.6998    13.6529    13.5528 H8            1 Compound
      88 H8           3.0644    12.3504    12.6015 H8            1 Compound
      89 H8           1.6113    14.0078    14.3511 H8            1 Compound
      90 H8           1.1719    14.6965    12.7555 H8            1 Compound
      91 H8           0.9417    11.7384    13.7162 H8            1 Compound
      92 H8           0.6672    12.2489    12.0526 H8            1 Compound
      93 H8          -1.1685    13.7720    12.7055 H8            1 Compound
      94 H8          -1.4516    12.0258    13.0558 H8            1 Compound
      95 H8          -0.8704    12.3224    15.4106 H8            1 Compound
      96 H8          -0.6075    14.0965    15.1726 H8            1 Compound
      97 H8          -2.9401    14.3741    14.3790 H8            1 Compound
      98 H8          -3.2613    12.6127    14.5643 H8            1 Compound
      99 H8          -4.1954    13.9725    16.4170 H8            1 Compound
     100 H8          -2.5507    14.5615    16.8571 H8            1 Compound
     101 H8          -1.8817    12.1812    17.4014 H8            1 Compound
     102 H8          -3.3366    12.6835    18.3221 H8            1 Compound
     103 H8          -3.5206    11.6164    16.8800 H8            1 Compound
     104 C6           0.0353     7.3690     9.4965 C6            1 Compound
     105 C6          -0.4757     6.8822    10.8959 C6            1 Compound
     106 C6          -0.7063     5.3426    10.7754 C6            1 Compound
     107 C6          -1.2186     4.6400    12.0469 C6            1 Compound
     108 C6          -1.4038     3.1197    11.8473 C6            1 Compound
     109 C6          -2.5283     2.7083    10.8720 C6            1 Compound
     110 C6          -3.9421     3.1739    11.2744 C6            1 Compound
     111 C6          -4.3927     2.6125    12.6373 C6            1 Compound
     112 C6          -5.7925     3.0845    13.0604 C6            1 Compound
     113 C6          -6.9162     2.5612    12.1488 C6            1 Compound
     114 C6          -8.3177     2.9424    12.6544 C6            1 Compound
     115 C6          -8.5749     4.4500    12.6427 C6            1 Compound
     116 C6           0.4070     7.2809    12.1172 C6            1 Compound
     117 C6           1.8796     6.8198    12.0734 C6            1 Compound
     118 C6           2.8113     8.0368    11.9840 C6            1 Compound
     119 C6           4.2398     7.6898    11.5781 C6            1 Compound
     120 C6           5.0317     6.9768    12.6719 C6            1 Compound
     121 C6           6.4640     6.7495    12.1720 C6            1 Compound
     122 C6           7.4047     6.1433    13.2184 C6            1 Compound
     123 C6           7.6699     7.0926    14.3884 C6            1 Compound
     124 H7           0.8833     6.7220     9.1852 H7            1 Compound
     125 H7          -0.7699     7.1821     8.7556 H7            1 Compound
     126 H8          -1.4626     7.3515    11.0949 H8            1 Compound
     127 H8           0.2441     4.8472    10.4821 H8            1 Compound
     128 H8          -1.4407     5.1813     9.9582 H8            1 Compound
     129 H8          -2.1590     5.1064    12.4055 H8            1 Compound
     130 H8          -0.4539     4.7499    12.8422 H8            1 Compound
     131 H8          -1.5979     2.6542    12.8347 H8            1 Compound
     132 H8          -0.4450     2.6885    11.4844 H8            1 Compound
     133 H8          -2.5334     1.5981    10.8007 H8            1 Compound
     134 H8          -2.3017     3.0956     9.8569 H8            1 Compound
     135 H8          -3.9834     4.2831    11.2909 H8            1 Compound
     136 H8          -4.6367     2.8213    10.4842 H8            1 Compound
     137 H8          -3.6960     2.9681    13.4232 H8            1 Compound
     138 H8          -4.3634     1.5007    12.6196 H8            1 Compound
     139 H8          -5.9773     2.7028    14.0887 H8            1 Compound
     140 H8          -5.7955     4.1937    13.0942 H8            1 Compound
     141 H8          -6.7944     2.9412    11.1134 H8            1 Compound
     142 H8          -6.8571     1.4509    12.1241 H8            1 Compound
     143 H8          -8.4679     2.5483    13.6833 H8            1 Compound
     144 H8          -9.0675     2.4624    11.9889 H8            1 Compound
     145 H8          -7.8926     4.9810    13.3367 H8            1 Compound
     146 H8          -8.4451     4.8539    11.6162 H8            1 Compound
     147 H8          -9.6160     4.6480    12.9737 H8            1 Compound
     148 H8          -0.0620     6.8931    13.0450 H8            1 Compound
     149 H8           0.3506     8.3831    12.2566 H8            1 Compound
     150 H8           2.1365     6.2516    12.9942 H8            1 Compound
     151 H8           2.0336     6.1406    11.2107 H8            1 Compound
     152 H8           2.7865     8.6274    12.9255 H8            1 Compound
     153 H8           2.4357     8.7021    11.2063 H8            1 Compound
     154 H8           4.2250     7.0875    10.6422 H8            1 Compound
     155 H8           4.7561     8.6486    11.3583 H8            1 Compound
     156 H8           5.0331     7.6330    13.5663 H8            1 Compound
     157 H8           4.5638     6.0036    12.9334 H8            1 Compound
     158 H8           6.4243     6.0677    11.2935 H8            1 Compound
     159 H8           6.8894     7.7187    11.8434 H8            1 Compound
     160 H8           8.3791     5.9451    12.7213 H8            1 Compound
     161 H8           6.9974     5.1787    13.5885 H8            1 Compound
     162 H8           6.7447     7.2950    14.9637 H8            1 Compound
     163 H8           8.4087     6.6326    15.0765 H8            1 Compound
     164 H8           8.0861     8.0533    14.0139 H8            1 Compound
     165 H5          11.4258    10.9731     8.9312 H5            1 Compound
     166 H5          -9.5086     9.2245     9.8841 H5            1 Compound
@<TRIPOS>BOND
       1        2        1 1
       2        9        1 1
       3       43        1 1
       4        3        2 1
       5       29        2 1
       6        4        3 1
       7        8        3 1
       8        5        4 1
       9        6        4 1
      10        7        6 1
      11      104        6 1
      12        8        7 1
      13       38        7 1
      14        9        8 1
      15       10        9 1
      16       12       11 1
      17       15       11 1
      18       16       11 1
      19       13       12 1
      20       17       12 1
      21       14       13 1
      22       26       13 1
      23       15       14 1
      24      165       15 1
      25       19       18 1
      26       22       18 1
      27       23       18 1
      28       20       19 1
      29       24       19 1
      30       21       20 1
      31       35       20 1
      32       22       21 1
      33      166       22 1
      34       26       25 1
      35       30       25 1
      36       31       25 1
      37       27       26 1
      38       28       27 1
      39       32       27 1
      40       29       28 1
      41       30       29 1
      42       33       30 1
      43       35       34 1
      44       39       34 1
      45       40       34 1
      46       36       35 1
      47       37       36 1
      48       41       36 1
      49       38       37 1
      50       39       38 1
      51       42       39 1
      52       44       43 1
      53       63       43 1
      54       64       43 1
      55       45       44 1
      56       55       44 1
      57       65       44 1
      58       46       45 1
      59       66       45 1
      60       67       45 1
      61       47       46 1
      62       68       46 1
      63       69       46 1
      64       48       47 1
      65       70       47 1
      66       71       47 1
      67       49       48 1
      68       72       48 1
      69       73       48 1
      70       50       49 1
      71       74       49 1
      72       75       49 1
      73       51       50 1
      74       76       50 1
      75       77       50 1
      76       52       51 1
      77       78       51 1
      78       79       51 1
      79       53       52 1
      80       80       52 1
      81       81       52 1
      82       54       53 1
      83       82       53 1
      84       83       53 1
      85       84       54 1
      86       85       54 1
      87       86       54 1
      88       56       55 1
      89       87       55 1
      90       88       55 1
      91       57       56 1
      92       89       56 1
      93       90       56 1
      94       58       57 1
      95       91       57 1
      96       92       57 1
      97       59       58 1
      98       93       58 1
      99       94       58 1
     100       60       59 1
     101       95       59 1
     102       96       59 1
     103       61       60 1
     104       97       60 1
     105       98       60 1
     106       62       61 1
     107       99       61 1
     108      100       61 1
     109      101       62 1
     110      102       62 1
     111      103       62 1
     112      105      104 1
     113      124      104 1
     114      125      104 1
     115      106      105 1
     116      116      105 1
     117      126      105 1
     118      107      106 1
     119      127      106 1
     120      128      106 1
     121      108      107 1
     122      129      107 1
     123      130      107 1
     124      109      108 1
     125      131      108 1
     126      132      108 1
     127      110      109 1
     128      133      109 1
     129      134      109 1
     130      111      110 1
     131      135      110 1
     132      136      110 1
     133      112      111 1
     134      137      111 1
     135      138      111 1
     136      113      112 1
     137      139      112 1
     138      140      112 1
     139      114      113 1
     140      141      113 1
     141      142      113 1
     142      115      114 1
     143      143      114 1
     144      144      114 1
     145      145      115 1
     146      146      115 1
     147      147      115 1
     148      117      116 1
     149      148      116 1
     150      149      116 1
     151      118      117 1
     152      150      117 1
     153      151      117 1
     154      119      118 1
     155      152      118 1
     156      153      118 1
     157      120      119 1
     158      154      119 1
     159      155      119 1
     160      121      120 1
     161      156      120 1
     162      157      120 1
     163      122      121 1
     164      158      121 1
     165      159      121 1
     166      123      122 1
     167      160      122 1
     168      161      122 1
     169      162      123 1
     170      163      123 1
     171      164      123 1
@<TRIPOS>SUBSTRUCTURE
       1 Compound        1 RESIDUE    0 **** ROOT      0
