@<TRIPOS>MOLECULE
Compound
32 36 1 0 1
SMALL
NO_CHARGES
@<TRIPOS>CRYSIN
   14.2656    14.2082     6.0000    90.0000    90.0000    90.0000  1  1
@<TRIPOS>ATOM
       1 C0          -3.6870     0.6574     0.0079 C0            1 Compound
       2 C0          -3.6730    -0.7285    -0.0013 C0            1 Compound
       3 C0          -2.4580    -1.4187     0.0006 C0            1 Compound
       4 C0          -2.4680    -2.8160    -0.0075 C0            1 Compound
       5 C0          -1.2750    -3.5215    -0.0048 C0            1 Compound
       6 C0          -0.0571    -2.8473     0.0022 C0            1 Compound
       7 C0           0.0022    -1.4291     0.0064 C0            1 Compound
       8 C0           1.2361    -0.7166     0.0034 C0            1 Compound
       9 C0           2.4939    -1.3748    -0.0062 C0            1 Compound
      10 C0           3.6867    -0.6577    -0.0180 C0            1 Compound
      11 C0           3.6728     0.7285    -0.0175 C0            1 Compound
      12 C0           2.4577     1.4186    -0.0044 C0            1 Compound
      13 C0           2.4683     2.8159    -0.0041 C0            1 Compound
      14 C0           1.2750     3.5214     0.0086 C0            1 Compound
      15 C0           0.0574     2.8475     0.0185 C0            1 Compound
      16 C0          -0.0020     1.4293     0.0149 C0            1 Compound
      17 C0          -1.2363     0.7169     0.0153 C0            1 Compound
      18 C0          -2.4938     1.3749     0.0173 C0            1 Compound
      19 C0          -1.2242    -0.7065     0.0084 C0            1 Compound
      20 C0           1.2244     0.7067     0.0059 C0            1 Compound
      21 H1          -4.6330     1.1841     0.0071 H1            1 Compound
      22 H1          -4.6157    -1.2630    -0.0099 H1            1 Compound
      23 H1          -3.4027    -3.3651    -0.0149 H1            1 Compound
      24 H1          -1.2920    -4.6041    -0.0098 H1            1 Compound
      25 H1           0.8166    -3.4742     0.0021 H1            1 Compound
      26 H1           2.5995    -2.4451    -0.0090 H1            1 Compound
      27 H1           4.6325    -1.1845    -0.0283 H1            1 Compound
      28 H1           4.6158     1.2628    -0.0280 H1            1 Compound
      29 H1           3.4028     3.3649    -0.0134 H1            1 Compound
      30 H1           1.2924     4.6041     0.0094 H1            1 Compound
      31 H1          -0.8166     3.4743     0.0260 H1            1 Compound
      32 H1          -2.5998     2.4451     0.0230 H1            1 Compound
@<TRIPOS>BOND
       1        2        1 1
       2       18        1 1
       3       21        1 1
       4        3        2 1
       5       22        2 1
       6        4        3 1
       7       19        3 1
       8        5        4 1
       9       23        4 1
      10        6        5 1
      11       24        5 1
      12        7        6 1
      13       25        6 1
      14        8        7 1
      15       19        7 1
      16        9        8 1
      17       20        8 1
      18       10        9 1
      19       26        9 1
      20       11       10 1
      21       27       10 1
      22       12       11 1
      23       28       11 1
      24       13       12 1
      25       20       12 1
      26       14       13 1
      27       29       13 1
      28       15       14 1
      29       30       14 1
      30       16       15 1
      31       31       15 1
      32       17       16 1
      33       20       16 1
      34       18       17 1
      35       19       17 1
      36       32       18 1
@<TRIPOS>SUBSTRUCTURE
       1 Compound        1 RESIDUE    0 **** ROOT      0
