@<TRIPOS>MOLECULE
Compound
32 36 1 0 1
SMALL
NO_CHARGES
@<TRIPOS>CRYSIN
   14.2598    14.2010     6.0000    90.0000    90.0000    90.0000  1  1
@<TRIPOS>ATOM
       1 C0          -3.6854     0.6671     0.0089 C0            1 Compound
       2 C0          -3.6750    -0.7190    -0.0024 C0            1 Compound
       3 C0          -2.4617    -1.4121    -0.0098 C0            1 Compound
       4 C0          -2.4755    -2.8094    -0.0212 C0            1 Compound
       5 C0          -1.2841    -3.5178    -0.0284 C0            1 Compound
       6 C0          -0.0646    -2.8469    -0.0238 C0            1 Compound
       7 C0          -0.0014    -1.4288    -0.0122 C0            1 Compound
       8 C0           1.2342    -0.7200    -0.0067 C0            1 Compound
       9 C0           2.4903    -1.3814    -0.0116 C0            1 Compound
      10 C0           3.6851    -0.6674    -0.0054 C0            1 Compound
      11 C0           3.6749     0.7186     0.0052 C0            1 Compound
      12 C0           2.4617     1.4121     0.0100 C0            1 Compound
      13 C0           2.4758     2.8093     0.0205 C0            1 Compound
      14 C0           1.2845     3.5180     0.0254 C0            1 Compound
      15 C0           0.0648     2.8473     0.0205 C0            1 Compound
      16 C0           0.0013     1.4293     0.0102 C0            1 Compound
      17 C0          -1.2345     0.7203     0.0058 C0            1 Compound
      18 C0          -2.4907     1.3814     0.0128 C0            1 Compound
      19 C0          -1.2262    -0.7032    -0.0054 C0            1 Compound
      20 C0           1.2261     0.7035     0.0044 C0            1 Compound
      21 H1          -4.6302     1.1960     0.0148 H1            1 Compound
      22 H1          -4.6192    -1.2512    -0.0053 H1            1 Compound
      23 H1          -3.4114    -3.3561    -0.0247 H1            1 Compound
      24 H1          -1.3040    -4.6004    -0.0374 H1            1 Compound
      25 H1           0.8076    -3.4761    -0.0298 H1            1 Compound
      26 H1           2.5931    -2.4518    -0.0198 H1            1 Compound
      27 H1           4.6296    -1.1967    -0.0090 H1            1 Compound
      28 H1           4.6193     1.2506     0.0098 H1            1 Compound
      29 H1           3.4119     3.3557     0.0247 H1            1 Compound
      30 H1           1.3048     4.6006     0.0333 H1            1 Compound
      31 H1          -0.8074     3.4766     0.0251 H1            1 Compound
      32 H1          -2.5936     2.4520     0.0217 H1            1 Compound
@<TRIPOS>BOND
       1        2        1 1
       2       18        1 1
       3       21        1 1
       4        3        2 1
       5       22        2 1
       6        4        3 1
       7       19        3 1
       8        5        4 1
       9       23        4 1
      10        6        5 1
      11       24        5 1
      12        7        6 1
      13       25        6 1
      14        8        7 1
      15       19        7 1
      16        9        8 1
      17       20        8 1
      18       10        9 1
      19       26        9 1
      20       11       10 1
      21       27       10 1
      22       12       11 1
      23       28       11 1
      24       13       12 1
      25       20       12 1
      26       14       13 1
      27       29       13 1
      28       15       14 1
      29       30       14 1
      30       16       15 1
      31       31       15 1
      32       17       16 1
      33       20       16 1
      34       18       17 1
      35       19       17 1
      36       32       18 1
@<TRIPOS>SUBSTRUCTURE
       1 Compound        1 RESIDUE    0 **** ROOT      0
