@<TRIPOS>MOLECULE
Compound
231 237 1 0 1
SMALL
NO_CHARGES
@<TRIPOS>CRYSIN
   23.6777    33.6063    34.4716    90.0000    90.0000    90.0000  1  1
@<TRIPOS>ATOM
       1 C0          12.2788     8.3567    10.5443 C0            1 Compound
       2 C1          13.3635     9.3477    10.2484 C1            1 Compound
       3 C1          12.9028    10.5972     9.8995 C1            1 Compound
       4 C1          11.4270    10.5936     9.8882 C1            1 Compound
       5 C1          10.3766    11.5539     9.6039 C1            1 Compound
       6 C1           9.0093    11.0730     9.6799 C1            1 Compound
       7 C1           8.8009     9.7580    10.0191 C1            1 Compound
       8 C1           9.7711     8.9185    10.3160 C1            1 Compound
       9 C1          11.0966     9.3118    10.2547 C1            1 Compound
      10 C1           7.4581     9.2386     9.9234 C1            1 Compound
      11 C1           6.7113    10.4343     9.7741 C1            1 Compound
      12 C0           7.6054    11.6858     9.4689 C0            1 Compound
      13 C1           5.4021    10.1677     9.9307 C1            1 Compound
      14 C1           5.1790     8.9108    10.4507 C1            1 Compound
      15 S2           6.6630     8.2262    11.1865 S2            1 Compound
      16 S2          14.2199    11.6246     9.6597 S2            1 Compound
      17 C1          15.3967    10.4057     9.9867 C1            1 Compound
      18 C1          14.7305     9.2069    10.2870 C1            1 Compound
      19 H3          10.5995    12.5759     9.3325 H3            1 Compound
      20 H3           9.4383     7.9460    10.5727 H3            1 Compound
      21 H3           4.5701    10.8474     9.8349 H3            1 Compound
      22 H3          15.1932     8.2732    10.5629 H3            1 Compound
      23 C1          19.0691     9.4161    10.2174 C1            1 Compound
      24 C1          17.6781     9.3593    10.0807 C1            1 Compound
      25 C1          16.8822    10.5271    10.0524 C1            1 Compound
      26 C1          17.5489    11.7609    10.1511 C1            1 Compound
      27 N4          16.9253    12.9625    10.1478 N4            1 Compound
      28 S2          18.1777    14.0235    10.3441 S2            1 Compound
      29 N4          19.5065    13.0540    10.4446 N4            1 Compound
      30 C1          18.9686    11.8143    10.3073 C1            1 Compound
      31 C1          19.7195    10.6470    10.3457 C1            1 Compound
      32 H3          19.6406     8.4966    10.2401 H3            1 Compound
      33 H3          17.2444     8.3720     9.9755 H3            1 Compound
      34 C0          12.3107     7.9523    12.1084 C0            1 Compound
      35 C0          10.8731     7.8277    12.6733 C0            1 Compound
      36 C0          10.1265     7.6945    13.9879 C0            1 Compound
      37 C0          10.2133     6.3955    14.7410 C0            1 Compound
      38 C0           9.9788     5.1365    13.8828 C0            1 Compound
      39 C0           9.9455     3.9013    14.7776 C0            1 Compound
      40 C0           8.6879     3.8757    15.6613 C0            1 Compound
      41 C0           8.7776     2.7356    16.6512 C0            1 Compound
      42 C0           7.5427     2.6965    17.5435 C0            1 Compound
      43 C0           7.6267     1.6958    18.7070 C0            1 Compound
      44 C0           7.8762     0.2274    18.3178 C0            1 Compound
      45 C0           9.3722    -0.1281    18.1178 C0            1 Compound
      46 C0           9.6196    -1.5943    17.7203 C0            1 Compound
      47 C0           9.7562    -2.5947    18.8852 C0            1 Compound
      48 C0           8.5439    -2.8020    19.7985 C0            1 Compound
      49 C0           7.3200    -3.3347    19.0557 C0            1 Compound
      50 H5          12.7875     8.7731    12.6896 H5            1 Compound
      51 H5          12.9307     7.0454    12.2720 H5            1 Compound
      52 H5          10.5075     8.8533    12.5132 H5            1 Compound
      53 H5          10.4372     7.0171    12.0939 H5            1 Compound
      54 H5          10.3297     8.5430    14.6720 H5            1 Compound
      55 H5           9.0467     7.7814    13.6809 H5            1 Compound
      56 H5          11.1915     6.3263    15.2476 H5            1 Compound
      57 H5           9.4184     6.5077    15.5035 H5            1 Compound
      58 H5           9.0380     5.1917    13.2880 H5            1 Compound
      59 H5          10.8324     5.0297    13.1780 H5            1 Compound
      60 H5          10.8660     3.9001    15.4031 H5            1 Compound
      61 H5           9.9549     2.9847    14.1483 H5            1 Compound
      62 H5           8.5835     4.7920    16.2670 H5            1 Compound
      63 H5           7.7848     3.7709    15.0193 H5            1 Compound
      64 H5           8.8427     1.8040    16.0588 H5            1 Compound
      65 H5           9.6822     2.8876    17.2831 H5            1 Compound
      66 H5           7.3820     3.7002    17.9983 H5            1 Compound
      67 H5           6.6601     2.4642    16.9078 H5            1 Compound
      68 H5           8.3789     2.0146    19.4624 H5            1 Compound
      69 H5           6.6285     1.7546    19.1938 H5            1 Compound
      70 H5           7.2690    -0.0285    17.4213 H5            1 Compound
      71 H5           7.4894    -0.3665    19.1543 H5            1 Compound
      72 H5           9.7849     0.4607    17.2918 H5            1 Compound
      73 H5           9.9802     0.1324    19.0113 H5            1 Compound
      74 H5          10.6161    -1.6241    17.2250 H5            1 Compound
      75 H5           8.8801    -1.9178    16.9561 H5            1 Compound
      76 H5          10.0277    -3.5806    18.4490 H5            1 Compound
      77 H5          10.6044    -2.2661    19.5226 H5            1 Compound
      78 H5           8.8235    -3.5442    20.5749 H5            1 Compound
      79 H5           8.3028    -1.8713    20.3462 H5            1 Compound
      80 H5           7.5624    -4.3057    18.5736 H5            1 Compound
      81 H5           6.4921    -3.4955    19.7791 H5            1 Compound
      82 H5           6.9748    -2.6201    18.2818 H5            1 Compound
      83 C0          12.3430     7.1317     9.4926 C0            1 Compound
      84 C0          10.9307     6.5717     9.2296 C0            1 Compound
      85 C0          10.1192     5.6109     8.3771 C0            1 Compound
      86 C0          10.1573     5.8268     6.8672 C0            1 Compound
      87 C0           9.9468     7.2926     6.3747 C0            1 Compound
      88 C0           9.9399     7.3497     4.8488 C0            1 Compound
      89 C0           8.6843     6.6945     4.2648 C0            1 Compound
      90 C0           8.8008     6.5930     2.7573 C0            1 Compound
      91 C0           7.5587     5.9257     2.1762 C0            1 Compound
      92 C0           7.6397     5.5844     0.6800 C0            1 Compound
      93 C0           7.8885     6.7682    -0.2716 C0            1 Compound
      94 C0           9.3844     7.1337    -0.4427 C0            1 Compound
      95 C0           9.6335     8.3297    -1.3800 C0            1 Compound
      96 C0           9.7580     8.0006    -2.8822 C0            1 Compound
      97 C0           8.5381     7.4018    -3.5930 C0            1 Compound
      98 C0           7.3218     8.3254    -3.5653 C0            1 Compound
      99 H5          12.7138     7.5068     8.5091 H5            1 Compound
     100 H5          13.0590     6.3550     9.8369 H5            1 Compound
     101 H5          10.6105     6.2474    10.2223 H5            1 Compound
     102 H5          10.4886     7.4507     8.7856 H5            1 Compound
     103 H5          10.3191     4.5542     8.6363 H5            1 Compound
     104 H5           9.0552     5.8172     8.6804 H5            1 Compound
     105 H5          11.1191     5.4579     6.4803 H5            1 Compound
     106 H5           9.3346     5.1830     6.4978 H5            1 Compound
     107 H5           9.0137     7.7551     6.7729 H5            1 Compound
     108 H5          10.8086     7.9131     6.7034 H5            1 Compound
     109 H5          10.8588     6.8425     4.4814 H5            1 Compound
     110 H5           9.9753     8.4097     4.5107 H5            1 Compound
     111 H5           8.5553     5.6619     4.6327 H5            1 Compound
     112 H5           7.7892     7.2911     4.5519 H5            1 Compound
     113 H5           8.8972     7.6245     2.3684 H5            1 Compound
     114 H5           9.6978     5.9801     2.5110 H5            1 Compound
     115 H5           7.3796     4.9637     2.7076 H5            1 Compound
     116 H5           6.6860     6.5886     2.3646 H5            1 Compound
     117 H5           8.3854     4.7824     0.4852 H5            1 Compound
     118 H5           6.6375     5.1645     0.4409 H5            1 Compound
     119 H5           7.2860     7.6429     0.0583 H5            1 Compound
     120 H5           7.4978     6.4501    -1.2460 H5            1 Compound
     121 H5           9.7975     7.4380     0.5257 H5            1 Compound
     122 H5           9.9860     6.2589    -0.7722 H5            1 Compound
     123 H5          10.6343     8.7371    -1.1103 H5            1 Compound
     124 H5           8.9002     9.1396    -1.1750 H5            1 Compound
     125 H5          10.0340     8.9419    -3.4058 H5            1 Compound
     126 H5          10.6039     7.2895    -3.0068 H5            1 Compound
     127 H5           8.8153     7.2299    -4.6545 H5            1 Compound
     128 H5           8.2940     6.4084    -3.1768 H5            1 Compound
     129 H5           7.5693     9.2941    -4.0489 H5            1 Compound
     130 H5           6.4901     7.8506    -4.1272 H5            1 Compound
     131 H5           6.9817     8.5130    -2.5265 H5            1 Compound
     132 C0           7.4203    12.1251     7.9815 C0            1 Compound
     133 C0           5.9737    12.5429     7.7359 C0            1 Compound
     134 C0           5.3975    12.4982     6.3459 C0            1 Compound
     135 C0           5.8136    13.6324     5.4493 C0            1 Compound
     136 C0           5.6252    14.9865     6.1683 C0            1 Compound
     137 C0           5.6381    16.1411     5.2036 C0            1 Compound
     138 C0           4.3557    16.1375     4.3711 C0            1 Compound
     139 C0           4.4228    17.2654     3.3827 C0            1 Compound
     140 C0           3.1763    17.3048     2.5206 C0            1 Compound
     141 C0           3.2577    18.3229     1.3786 C0            1 Compound
     142 C0           3.5166    19.7828     1.8018 C0            1 Compound
     143 C0           5.0161    20.1375     1.9944 C0            1 Compound
     144 C0           5.2629    21.5968     2.4175 C0            1 Compound
     145 C0           5.3877    22.6147     1.2649 C0            1 Compound
     146 C0           4.1697    22.8210     0.3584 C0            1 Compound
     147 C0           2.9457    23.3333     1.1148 C0            1 Compound
     148 H5           7.6551    11.2478     7.3390 H5            1 Compound
     149 H5           8.1181    12.9465     7.6994 H5            1 Compound
     150 H5           5.3283    11.8182     8.1953 H5            1 Compound
     151 H5           5.8053    13.5279     8.1959 H5            1 Compound
     152 H5           5.5712    11.5081     5.8728 H5            1 Compound
     153 H5           4.2932    12.6102     6.4827 H5            1 Compound
     154 H5           6.8604    13.5292     5.1038 H5            1 Compound
     155 H5           5.1469    13.5117     4.5763 H5            1 Compound
     156 H5           4.6658    15.0266     6.7359 H5            1 Compound
     157 H5           6.4651    15.1265     6.8831 H5            1 Compound
     158 H5           6.5475    16.0765     4.5698 H5            1 Compound
     159 H5           5.6761    17.0876     5.7889 H5            1 Compound
     160 H5           4.2307    15.2026     3.7943 H5            1 Compound
     161 H5           3.4705    16.2622     5.0371 H5            1 Compound
     162 H5           4.4865    18.1921     3.9835 H5            1 Compound
     163 H5           5.3180    17.1184     2.7368 H5            1 Compound
     164 H5           3.0132    16.3036     2.0583 H5            1 Compound
     165 H5           2.3034    17.5282     3.1729 H5            1 Compound
     166 H5           4.0074    18.0147     0.6174 H5            1 Compound
     167 H5           2.2579    18.2739     0.8974 H5            1 Compound
     168 H5           2.9170    20.0178     2.7090 H5            1 Compound
     169 H5           3.1210    20.3909     0.9820 H5            1 Compound
     170 H5           5.4467    19.5395     2.8034 H5            1 Compound
     171 H5           5.6170    19.8944     1.0917 H5            1 Compound
     172 H5           6.2619    21.6217     2.9087 H5            1 Compound
     173 H5           4.5270    21.9066     3.1915 H5            1 Compound
     174 H5           5.6573    23.5959     1.7128 H5            1 Compound
     175 H5           6.2379    22.2971     0.6227 H5            1 Compound
     176 H5           4.4420    23.5751    -0.4099 H5            1 Compound
     177 H5           3.9388    21.8947    -0.1980 H5            1 Compound
     178 H5           3.1819    24.3006     1.6062 H5            1 Compound
     179 H5           2.1125    23.4917     0.3984 H5            1 Compound
     180 H5           2.6124    22.6074     1.8843 H5            1 Compound
     181 C0           7.3543    12.8199    10.5392 C0            1 Compound
     182 C0           5.8531    12.9623    10.9092 C0            1 Compound
     183 C0           5.3833    14.0555    11.8400 C0            1 Compound
     184 C0           5.8281    13.9068    13.2880 C0            1 Compound
     185 C0           5.6015    12.4744    13.8355 C0            1 Compound
     186 C0           5.6680    12.4209    15.3500 C0            1 Compound
     187 C0           4.4058    13.0501    15.9510 C0            1 Compound
     188 C0           4.5000    13.0746    17.4589 C0            1 Compound
     189 C0           3.2421    13.6940    18.0564 C0            1 Compound
     190 C0           3.3022    13.9454    19.5702 C0            1 Compound
     191 C0           3.5470    12.7083    20.4551 C0            1 Compound
     192 C0           5.0408    12.3343    20.6218 C0            1 Compound
     193 C0           5.2821    11.0943    21.5004 C0            1 Compound
     194 C0           5.4016    11.3598    23.0180 C0            1 Compound
     195 C0           4.1833    11.9367    23.7491 C0            1 Compound
     196 C0           2.9625    11.0219    23.6838 C0            1 Compound
     197 H5           7.8712    12.5542    11.4888 H5            1 Compound
     198 H5           7.7973    13.7725    10.1764 H5            1 Compound
     199 H5           5.2114    13.0899    10.0451 H5            1 Compound
     200 H5           5.5361    12.0345    11.3904 H5            1 Compound
     201 H5           5.6247    15.0585    11.4338 H5            1 Compound
     202 H5           4.2703    13.9586    11.8527 H5            1 Compound
     203 H5           6.8952    14.1784    13.4135 H5            1 Compound
     204 H5           5.2188    14.6582    13.8236 H5            1 Compound
     205 H5           4.6160    12.0573    13.5223 H5            1 Compound
     206 H5           6.4007    11.8172    13.4264 H5            1 Compound
     207 H5           6.5939    12.9299    15.6963 H5            1 Compound
     208 H5           5.7086    11.3560    15.6716 H5            1 Compound
     209 H5           4.2678    14.0927    15.6109 H5            1 Compound
     210 H5           3.5151    12.4579    15.6359 H5            1 Compound
     211 H5           4.5939    12.0221    17.7879 H5            1 Compound
     212 H5           5.3893    13.6771    17.7498 H5            1 Compound
     213 H5           3.0612    14.6826    17.5771 H5            1 Compound
     214 H5           2.3777    13.0357    17.8174 H5            1 Compound
     215 H5           4.0422    14.7371    19.8195 H5            1 Compound
     216 H5           2.2954    14.3462    19.8210 H5            1 Compound
     217 H5           2.9470    11.8529    20.0710 H5            1 Compound
     218 H5           3.1433    12.9706    21.4414 H5            1 Compound
     219 H5           5.4622    12.0753    19.6437 H5            1 Compound
     220 H5           5.6398    13.1928    20.9966 H5            1 Compound
     221 H5           6.2791    10.6960    21.2185 H5            1 Compound
     222 H5           4.5429    10.3000    21.2594 H5            1 Compound
     223 H5           5.6702    10.3960    23.5025 H5            1 Compound
     224 H5           6.2513    12.0597    23.1745 H5            1 Compound
     225 H5           4.4590    12.0663    24.8171 H5            1 Compound
     226 H5           3.9461    12.9478    23.3712 H5            1 Compound
     227 H5           3.2035    10.0349    24.1323 H5            1 Compound
     228 H5           2.1315    11.4801    24.2603 H5            1 Compound
     229 H5           2.6250    10.8741    22.6379 H5            1 Compound
     230 H6           4.1886     8.5748    10.7232 H6            1 Compound
     231 H3          20.7902    10.6768    10.4870 H3            1 Compound
@<TRIPOS>BOND
       1        2        1 1
       2        9        1 1
       3       34        1 1
       4       83        1 1
       5        3        2 1
       6       18        2 1
       7        4        3 1
       8       16        3 1
       9        5        4 1
      10        9        4 1
      11        6        5 1
      12       19        5 1
      13        7        6 1
      14       12        6 1
      15        8        7 1
      16       10        7 1
      17        9        8 1
      18       20        8 1
      19       11       10 1
      20       15       10 1
      21       12       11 1
      22       13       11 1
      23      132       12 1
      24      181       12 1
      25       14       13 1
      26       21       13 1
      27       15       14 1
      28      230       14 1
      29       17       16 1
      30       18       17 1
      31       25       17 1
      32       22       18 1
      33       24       23 1
      34       31       23 1
      35       32       23 1
      36       25       24 1
      37       33       24 1
      38       26       25 1
      39       27       26 1
      40       30       26 1
      41       28       27 1
      42       29       28 1
      43       30       29 1
      44       31       30 1
      45      231       31 1
      46       35       34 1
      47       50       34 1
      48       51       34 1
      49       36       35 1
      50       52       35 1
      51       53       35 1
      52       37       36 1
      53       54       36 1
      54       55       36 1
      55       38       37 1
      56       56       37 1
      57       57       37 1
      58       39       38 1
      59       58       38 1
      60       59       38 1
      61       40       39 1
      62       60       39 1
      63       61       39 1
      64       41       40 1
      65       62       40 1
      66       63       40 1
      67       42       41 1
      68       64       41 1
      69       65       41 1
      70       43       42 1
      71       66       42 1
      72       67       42 1
      73       44       43 1
      74       68       43 1
      75       69       43 1
      76       45       44 1
      77       70       44 1
      78       71       44 1
      79       46       45 1
      80       72       45 1
      81       73       45 1
      82       47       46 1
      83       74       46 1
      84       75       46 1
      85       48       47 1
      86       76       47 1
      87       77       47 1
      88       49       48 1
      89       78       48 1
      90       79       48 1
      91       80       49 1
      92       81       49 1
      93       82       49 1
      94       84       83 1
      95       99       83 1
      96      100       83 1
      97       85       84 1
      98      101       84 1
      99      102       84 1
     100       86       85 1
     101      103       85 1
     102      104       85 1
     103       87       86 1
     104      105       86 1
     105      106       86 1
     106       88       87 1
     107      107       87 1
     108      108       87 1
     109       89       88 1
     110      109       88 1
     111      110       88 1
     112       90       89 1
     113      111       89 1
     114      112       89 1
     115       91       90 1
     116      113       90 1
     117      114       90 1
     118       92       91 1
     119      115       91 1
     120      116       91 1
     121       93       92 1
     122      117       92 1
     123      118       92 1
     124       94       93 1
     125      119       93 1
     126      120       93 1
     127       95       94 1
     128      121       94 1
     129      122       94 1
     130       96       95 1
     131      123       95 1
     132      124       95 1
     133       97       96 1
     134      125       96 1
     135      126       96 1
     136       98       97 1
     137      127       97 1
     138      128       97 1
     139      129       98 1
     140      130       98 1
     141      131       98 1
     142      133      132 1
     143      148      132 1
     144      149      132 1
     145      134      133 1
     146      150      133 1
     147      151      133 1
     148      135      134 1
     149      152      134 1
     150      153      134 1
     151      136      135 1
     152      154      135 1
     153      155      135 1
     154      137      136 1
     155      156      136 1
     156      157      136 1
     157      138      137 1
     158      158      137 1
     159      159      137 1
     160      139      138 1
     161      160      138 1
     162      161      138 1
     163      140      139 1
     164      162      139 1
     165      163      139 1
     166      141      140 1
     167      164      140 1
     168      165      140 1
     169      142      141 1
     170      166      141 1
     171      167      141 1
     172      143      142 1
     173      168      142 1
     174      169      142 1
     175      144      143 1
     176      170      143 1
     177      171      143 1
     178      145      144 1
     179      172      144 1
     180      173      144 1
     181      146      145 1
     182      174      145 1
     183      175      145 1
     184      147      146 1
     185      176      146 1
     186      177      146 1
     187      178      147 1
     188      179      147 1
     189      180      147 1
     190      182      181 1
     191      197      181 1
     192      198      181 1
     193      183      182 1
     194      199      182 1
     195      200      182 1
     196      184      183 1
     197      201      183 1
     198      202      183 1
     199      185      184 1
     200      203      184 1
     201      204      184 1
     202      186      185 1
     203      205      185 1
     204      206      185 1
     205      187      186 1
     206      207      186 1
     207      208      186 1
     208      188      187 1
     209      209      187 1
     210      210      187 1
     211      189      188 1
     212      211      188 1
     213      212      188 1
     214      190      189 1
     215      213      189 1
     216      214      189 1
     217      191      190 1
     218      215      190 1
     219      216      190 1
     220      192      191 1
     221      217      191 1
     222      218      191 1
     223      193      192 1
     224      219      192 1
     225      220      192 1
     226      194      193 1
     227      221      193 1
     228      222      193 1
     229      195      194 1
     230      223      194 1
     231      224      194 1
     232      196      195 1
     233      225      195 1
     234      226      195 1
     235      227      196 1
     236      228      196 1
     237      229      196 1
@<TRIPOS>SUBSTRUCTURE
       1 Compound        1 RESIDUE    0 **** ROOT      0
