@<TRIPOS>MOLECULE
Compound
439 446 1 0 1
SMALL
NO_CHARGES
@<TRIPOS>CRYSIN
   63.7582    66.7496    10.3830    90.0000    90.0000    90.0000  1  1
@<TRIPOS>ATOM
       1 C0          -5.5972     3.7881     0.2496 C0            1 Compound
       2 C1          -5.4243     5.2387    -0.0433 C1            1 Compound
       3 C1          -4.1091     5.6440     0.2848 C1            1 Compound
       4 C1          -3.2886     4.6967     0.6889 C1            1 Compound
       5 C1          -1.8227     4.8252     0.8311 C1            1 Compound
       6 C1          -0.9783     3.6521     0.7523 C1            1 Compound
       7 C1          -1.7734     2.4980     0.5933 C1            1 Compound
       8 C1          -3.2087     2.3495     0.7321 C1            1 Compound
       9 C1          -4.0587     3.5074     0.7430 C1            1 Compound
      10 C1          -1.0146     1.5900     0.0673 C1            1 Compound
      11 C1           0.2496     2.0270    -0.2880 C1            1 Compound
      12 C0           0.5371     3.3466     0.0955 C0            1 Compound
      13 C0           2.2292     3.1191     0.3946 C0            1 Compound
      14 C0           3.9173     2.7972     0.2642 C0            1 Compound
      15 C0           5.3000     2.5905     1.1130 C0            1 Compound
      16 C0           6.6509     2.2276     0.2116 C0            1 Compound
      17 C0           8.1515     2.0943     0.8755 C0            1 Compound
      18 C0           9.4769     1.7499    -0.0487 C0            1 Compound
      19 C0          10.9782     1.7424     0.6335 C0            1 Compound
      20 C0          12.3279     1.3773    -0.2395 C0            1 Compound
      21 C0          13.8261     1.5410     0.4292 C0            1 Compound
      22 C0          15.1612     1.0372    -0.3801 C0            1 Compound
      23 C0          16.7020     1.3866     0.1214 C0            1 Compound
      24 C0          17.9030     0.3799    -0.3636 C0            1 Compound
      25 C0          17.7739    -1.0323     0.3336 C0            1 Compound
      26 C0          18.3109    -2.1884    -0.5585 C0            1 Compound
      27 C0          17.6125    -3.5854    -0.5073 C0            1 Compound
      28 C0          17.8483    -4.6730     0.5581 C0            1 Compound
      29 C0          19.4678     0.8656    -0.5630 C0            1 Compound
      30 C0          20.7133     0.3518     0.3147 C0            1 Compound
      31 C0          22.1999     0.6919    -0.2071 C0            1 Compound
      32 C0          23.3246     0.0631     0.7110 C0            1 Compound
      33 C0          24.8352     0.5059     0.6098 C0            1 Compound
      34 C0          25.7422    -0.0531    -0.5044 C0            1 Compound
      35 C0           0.6728     4.7853    -0.7273 C0            1 Compound
      36 C0           1.4499     5.9329     0.1883 C0            1 Compound
      37 C0           1.3747     7.5223     0.6552 C0            1 Compound
      38 C0           1.7896     9.0012     0.0698 C0            1 Compound
      39 C0           1.9954    10.1444     1.2619 C0            1 Compound
      40 C0           2.0614    11.7932     1.6421 C0            1 Compound
      41 C0           2.8608    13.2662     1.6511 C0            1 Compound
      42 C0           2.7942    14.4246     0.5154 C0            1 Compound
      43 C0           3.8549    15.6578     0.2772 C0            1 Compound
      44 C0           3.6626    17.3129     0.3715 C0            1 Compound
      45 C0           4.3608    18.8369     0.2963 C0            1 Compound
      46 C0           3.5259    20.1724     0.6401 C0            1 Compound
      47 C0           2.3750    20.2729    -0.4027 C0            1 Compound
      48 C0           1.2170    21.2851    -0.3631 C0            1 Compound
      49 C0           0.2970    21.1854     0.8632 C0            1 Compound
      50 C0          -1.1211    21.6047     0.4770 C0            1 Compound
      51 C0           4.4211    21.5252     0.8573 C0            1 Compound
      52 C0           4.4943    22.8102    -0.0858 C0            1 Compound
      53 C0           5.3432    24.0163     0.5309 C0            1 Compound
      54 C0           5.0595    25.4353    -0.0934 C0            1 Compound
      55 C0           6.0227    26.5886     0.3610 C0            1 Compound
      56 C0           6.1996    27.6781    -0.7209 C0            1 Compound
      57 C1           0.9734     0.9092    -0.8153 C1            1 Compound
      58 C1           0.2201    -0.2668    -0.8983 C1            1 Compound
      59 S2          -1.3422     0.0012    -0.3462 S2            1 Compound
      60 S2          -3.7965     7.2917     0.0218 S2            1 Compound
      61 C1          -5.3354     7.7664    -0.4542 C1            1 Compound
      62 C1          -6.1228     6.5031    -0.4539 C1            1 Compound
      63 C1          -5.7147     9.2975    -0.7544 C1            1 Compound
      64 C1          -4.9050    10.4415    -0.7351 C1            1 Compound
      65 C1          -5.5603    11.8458    -1.0204 C1            1 Compound
      66 C0          -5.2671    13.1430    -0.4033 C0            1 Compound
      67 C1          -6.5398    13.2414     0.4262 C1            1 Compound
      68 C1          -7.1562    14.1559     1.3212 C1            1 Compound
      69 C1          -8.5418    13.9382     1.4530 C1            1 Compound
      70 S2          -9.0337    12.6514     0.4826 S2            1 Compound
      71 C1          -7.4871    12.3906    -0.1028 C1            1 Compound
      72 C1          -7.0165    11.5824    -1.2250 C1            1 Compound
      73 S2          -7.4132     9.7704    -1.0668 S2            1 Compound
      74 C0          -3.6888    13.0427     0.1014 C0            1 Compound
      75 C0          -2.2481    12.6798    -0.6826 C0            1 Compound
      76 C0          -0.7954    12.4419    -0.0518 C0            1 Compound
      77 C0           0.2725    11.9915    -1.2141 C0            1 Compound
      78 C0           1.8899    12.1134    -1.5861 C0            1 Compound
      79 C0           3.5070    11.6329    -1.5096 C0            1 Compound
      80 C0           4.7873    11.7135    -0.4689 C0            1 Compound
      81 C0           6.2991    11.5604    -1.0825 C0            1 Compound
      82 C0           7.5939    11.5580    -0.0840 C0            1 Compound
      83 C0           9.1204    11.6417    -0.6818 C0            1 Compound
      84 C0          10.3384    11.5858     0.3974 C0            1 Compound
      85 C0          11.9378    11.9260     0.1689 C0            1 Compound
      86 C0          12.1310    13.2508    -0.6195 C0            1 Compound
      87 C0          12.1504    14.4926     0.2796 C0            1 Compound
      88 C0          12.4036    15.7527    -0.5605 C0            1 Compound
      89 C0          12.5409    16.9918     0.3169 C0            1 Compound
      90 C0          13.1006    10.8959    -0.2830 C0            1 Compound
      91 C0          14.5807    11.3817     0.1745 C0            1 Compound
      92 C0          15.8999    10.5992    -0.2535 C0            1 Compound
      93 C0          17.1644    11.1345     0.5325 C0            1 Compound
      94 C0          18.5327    10.3681     0.4680 C0            1 Compound
      95 C0          19.4821    10.6428    -0.7108 C0            1 Compound
      96 C0          -5.3944    14.6849    -1.1510 C0            1 Compound
      97 C0          -4.8126    15.9880    -0.2713 C0            1 Compound
      98 C0          -5.2666    17.5724     0.0826 C0            1 Compound
      99 C0          -4.8200    19.1757    -0.3488 C0            1 Compound
     100 C0          -4.8434    20.8350     0.0999 C0            1 Compound
     101 C0          -4.2654    22.1492    -0.7068 C0            1 Compound
     102 C0          -4.1426    23.5869     0.1175 C0            1 Compound
     103 C0          -3.5421    24.9509    -0.5938 C0            1 Compound
     104 C0          -3.4654    26.3992     0.2008 C0            1 Compound
     105 C0          -2.7587    27.7040    -0.5184 C0            1 Compound
     106 C0          -3.0202    29.2626    -0.0262 C0            1 Compound
     107 C0          -1.8816    30.4243    -0.2673 C0            1 Compound
     108 C0          -0.6543    30.2480     0.6702 C0            1 Compound
     109 C0           0.6614    30.2700    -0.1359 C0            1 Compound
     110 C0           1.9099    30.1897     0.7497 C0            1 Compound
     111 C0           3.1599    29.9892    -0.1077 C0            1 Compound
     112 C0          -2.3117    32.0105    -0.3890 C0            1 Compound
     113 C0          -1.4337    33.2715     0.1671 C0            1 Compound
     114 C0          -1.7934    34.6735    -0.5190 C0            1 Compound
     115 C0          -0.7704    35.9146    -0.5950 C0            1 Compound
     116 C0          -0.9920    37.2834     0.2273 C0            1 Compound
     117 C0          -0.3586    38.6422     0.7497 C0            1 Compound
     118 C0          -7.1747     3.7605     0.9020 C0            1 Compound
     119 C0          -8.4633     4.6918     0.4664 C0            1 Compound
     120 C0         -10.1150     4.3090     0.5800 C0            1 Compound
     121 C0         -11.8288     4.4190     0.4539 C0            1 Compound
     122 C0         -13.4291     4.4908    -0.0691 C0            1 Compound
     123 C0         -14.6867     4.7285     0.9288 C0            1 Compound
     124 C0         -16.0538     5.5353     0.4786 C0            1 Compound
     125 C0         -17.5626     5.0473     0.0239 C0            1 Compound
     126 C0         -19.1471     4.8915    -0.4125 C0            1 Compound
     127 C0         -20.3678     5.6272     0.3546 C0            1 Compound
     128 C0         -21.8579     5.3684    -0.2397 C0            1 Compound
     129 C0         -23.1454     6.1750     0.3682 C0            1 Compound
     130 C0         -23.0175     7.7256     0.1833 C0            1 Compound
     131 C0         -23.0708     9.1526    -0.4477 C0            1 Compound
     132 C0         -22.8893    10.2538     0.6104 C0            1 Compound
     133 C0         -22.8352    11.6369    -0.0407 C0            1 Compound
     134 C0         -24.5762     5.7058    -0.2065 C0            1 Compound
     135 C0         -25.8797     6.3386     0.4485 C0            1 Compound
     136 C0         -27.2171     6.0239    -0.3268 C0            1 Compound
     137 C0         -28.5312     6.5193     0.3710 C0            1 Compound
     138 C0         -29.7935     6.3499    -0.5254 C0            1 Compound
     139 C0         -31.1068     6.7359     0.1812 C0            1 Compound
     140 C0          -5.7866     2.4564    -0.7683 C0            1 Compound
     141 C0          -6.1817     0.9254    -0.0539 C0            1 Compound
     142 C0          -6.3220    -0.5572    -0.7963 C0            1 Compound
     143 C0          -6.7038    -1.9202     0.1002 C0            1 Compound
     144 C0          -6.9576    -3.4199    -0.5879 C0            1 Compound
     145 C0          -7.3302    -4.7879     0.2965 C0            1 Compound
     146 C0          -7.5411    -6.2747    -0.4300 C0            1 Compound
     147 C0          -8.0239    -7.6408     0.3941 C0            1 Compound
     148 C0          -8.0999    -9.1193    -0.3606 C0            1 Compound
     149 C0          -8.7620   -10.4771     0.3327 C0            1 Compound
     150 C0          -8.7458   -11.8895    -0.5209 C0            1 Compound
     151 C0          -9.6352   -13.2791    -0.2631 C0            1 Compound
     152 C0         -10.9250   -13.0370     0.5642 C0            1 Compound
     153 C0         -12.1536   -12.7551    -0.3030 C0            1 Compound
     154 C0         -13.4076   -12.6194     0.5715 C0            1 Compound
     155 C0         -14.6527   -12.4112    -0.2823 C0            1 Compound
     156 C0          -9.0517   -14.7440     0.1476 C0            1 Compound
     157 C0         -10.0118   -16.0001    -0.2579 C0            1 Compound
     158 C0          -9.7309   -17.4801     0.3027 C0            1 Compound
     159 C0         -10.6107   -18.5993    -0.4131 C0            1 Compound
     160 C0         -10.2166   -20.1381    -0.3795 C0            1 Compound
     161 C0         -10.8951   -21.1769     0.5560 C0            1 Compound
     162 H3          -1.3877     5.8067     0.7219 H3            1 Compound
     163 H3          -3.6113     1.3853     0.5268 H3            1 Compound
     164 H4           2.3383     3.0780    -0.7181 H4            1 Compound
     165 H4           2.3384     3.0782    -0.7181 H4            1 Compound
     166 H4           4.3157     3.5818    -0.4368 H4            1 Compound
     167 H4           3.9480     1.8048    -0.2602 H4            1 Compound
     168 H4           5.1498     1.7706     1.8472 H4            1 Compound
     169 H4           5.4977     3.5282     1.6685 H4            1 Compound
     170 H4           6.7330     3.0121    -0.5701 H4            1 Compound
     171 H4           6.4435     1.2708    -0.3178 H4            1 Compound
     172 H4           8.0951     1.3108     1.6594 H4            1 Compound
     173 H4           8.3548     3.0630     1.3730 H4            1 Compound
     174 H4           9.5087     2.4945    -0.8721 H4            1 Compound
     175 H4           9.3097     0.7542    -0.5143 H4            1 Compound
     176 H4          11.1311     2.7567     1.0528 H4            1 Compound
     177 H4          10.9492     1.0268     1.4824 H4            1 Compound
     178 H4          12.2187     0.3262    -0.5830 H4            1 Compound
     179 H4          12.3236     2.0215    -1.1437 H4            1 Compound
     180 H4          13.9527     2.6153     0.6693 H4            1 Compound
     181 H4          13.8326     0.9776     1.3867 H4            1 Compound
     182 H4          15.0580    -0.0609    -0.4582 H4            1 Compound
     183 H4          15.0931     1.4147    -1.4257 H4            1 Compound
     184 H4          16.7547     1.4889     1.2214 H4            1 Compound
     185 H4          16.9154     2.3976    -0.3013 H4            1 Compound
     186 H4          17.5695     0.2791    -1.4179 H4            1 Compound
     187 H4          18.2282    -1.0283     1.3530 H4            1 Compound
     188 H4          16.6954    -1.2183     0.4793 H4            1 Compound
     189 H4          18.0248    -1.8705    -1.5797 H4            1 Compound
     190 H4          19.4155    -2.2569    -0.5611 H4            1 Compound
     191 H4          17.9393    -4.0809    -1.4454 H4            1 Compound
     192 H4          16.5185    -3.4155    -0.5629 H4            1 Compound
     193 H4          17.4634    -4.4214     1.5657 H4            1 Compound
     194 H4          18.9054    -5.0117     0.6094 H4            1 Compound
     195 H4          17.2661    -5.5661     0.2151 H4            1 Compound
     196 H4          19.7482     0.4769    -1.5672 H4            1 Compound
     197 H4          19.5088     1.9716    -0.6673 H4            1 Compound
     198 H4          20.6147     0.7430     1.3472 H4            1 Compound
     199 H4          20.6793    -0.7502     0.3683 H4            1 Compound
     200 H4          22.3586     0.3232    -1.2460 H4            1 Compound
     201 H4          22.3329     1.7943    -0.2134 H4            1 Compound
     202 H4          23.0468     0.3639     1.7402 H4            1 Compound
     203 H4          23.2849    -1.0473     0.6631 H4            1 Compound
     204 H4          25.3233     0.1312     1.5404 H4            1 Compound
     205 H4          24.9223     1.6124     0.6298 H4            1 Compound
     206 H4          25.4705     0.3153    -1.5111 H4            1 Compound
     207 H4          25.7671    -1.1644    -0.4908 H4            1 Compound
     208 H4          26.7943     0.2766    -0.3039 H4            1 Compound
     209 H4           1.2004     4.6741    -1.6994 H4            1 Compound
     210 H4          -0.3001     5.1498    -1.0863 H4            1 Compound
     211 H4           2.5292     5.7197     0.0454 H4            1 Compound
     212 H4           1.2071     5.5133     1.1904 H4            1 Compound
     213 H4           2.0642     7.4790     1.5257 H4            1 Compound
     214 H4           0.3534     7.6550     1.0736 H4            1 Compound
     215 H4           0.9885     9.2764    -0.6380 H4            1 Compound
     216 H4           2.7376     8.9166    -0.4973 H4            1 Compound
     217 H4           2.8907     9.7398     1.7813 H4            1 Compound
     218 H4           1.1184     9.8658     1.8874 H4            1 Compound
     219 H4           2.1352    11.6314     2.7412 H4            1 Compound
     220 H4           1.0439    12.1254     1.5042 H4            1 Compound
     221 H4           2.4439    13.8093     2.5287 H4            1 Compound
     222 H4           3.9156    13.0678     1.9214 H4            1 Compound
     223 H4           1.7557    14.7200     0.2529 H4            1 Compound
     224 H4           3.1333    13.7929    -0.2683 H4            1 Compound
     225 H4           4.8112    15.3373     0.7509 H4            1 Compound
     226 H4           4.0013    15.5034    -0.8418 H4            1 Compound
     227 H4           2.7727    17.4230    -0.2716 H4            1 Compound
     228 H4           4.6072    17.2094    -0.1985 H4            1 Compound
     229 H4           5.2473    18.8372     0.9756 H4            1 Compound
     230 H4           4.7502    19.0880    -0.7379 H4            1 Compound
     231 H4           3.1051    19.9534     1.6439 H4            1 Compound
     232 H4           2.8437    20.3755    -1.4041 H4            1 Compound
     233 H4           1.8458    19.3035    -0.3751 H4            1 Compound
     234 H4           1.5103    22.3359    -0.5431 H4            1 Compound
     235 H4           0.6167    20.9877    -1.2545 H4            1 Compound
     236 H4           0.2166    20.1373     1.2197 H4            1 Compound
     237 H4           0.6932    21.8203     1.6843 H4            1 Compound
     238 H4          -1.1422    22.6219     0.0305 H4            1 Compound
     239 H4          -1.5042    20.8743    -0.2723 H4            1 Compound
     240 H4          -1.7993    21.5693     1.3534 H4            1 Compound
     241 H4           3.9927    21.9786     1.7752 H4            1 Compound
     242 H4           5.4550    21.2293     1.1379 H4            1 Compound
     243 H4           4.9032    22.5715    -1.0939 H4            1 Compound
     244 H4           3.4687    23.1905    -0.2181 H4            1 Compound
     245 H4           5.1577    24.1078     1.6212 H4            1 Compound
     246 H4           6.4224    23.7784     0.3928 H4            1 Compound
     247 H4           4.0220    25.7592     0.1621 H4            1 Compound
     248 H4           5.1214    25.3454    -1.1926 H4            1 Compound
     249 H4           5.6498    27.0645     1.2987 H4            1 Compound
     250 H4           7.0451    26.2064     0.5598 H4            1 Compound
     251 H4           6.7211    27.2479    -1.6051 H4            1 Compound
     252 H4           5.2350    28.1035    -1.0586 H4            1 Compound
     253 H4           6.8360    28.5139    -0.3480 H4            1 Compound
     254 H3           2.0096     0.8930    -1.1065 H3            1 Compound
     255 H5           0.5790    -1.2276    -1.2426 H5            1 Compound
     256 H3          -7.1603     6.5715    -0.7383 H3            1 Compound
     257 H3          -3.8678    10.3374    -0.4638 H3            1 Compound
     258 H3          -6.7136    15.0126     1.7935 H3            1 Compound
     259 H5          -9.2335    14.5553     2.0157 H5            1 Compound
     260 H4          -3.4863    13.8865     0.7886 H4            1 Compound
     261 H4          -3.6854    13.3764    -0.8982 H4            1 Compound
     262 H4          -1.9053    13.5200    -1.3886 H4            1 Compound
     263 H4          -2.4307    11.7701    -1.2989 H4            1 Compound
     264 H4          -0.8753    11.6641     0.7378 H4            1 Compound
     265 H4          -0.4962    13.4110     0.4111 H4            1 Compound
     266 H4          -0.1098    12.6212    -2.0471 H4            1 Compound
     267 H4          -0.0544    10.9726    -1.4884 H4            1 Compound
     268 H4           1.9442    13.2071    -1.7183 H4            1 Compound
     269 H4           1.7623    11.7832    -2.6418 H4            1 Compound
     270 H4           3.9205    12.2237    -2.3560 H4            1 Compound
     271 H4           3.5129    10.5802    -1.8532 H4            1 Compound
     272 H4           4.6302    10.9625     0.3322 H4            1 Compound
     273 H4           4.8605    12.7018    -0.0015 H4            1 Compound
     274 H4           6.4297    12.4203    -1.7750 H4            1 Compound
     275 H4           6.3438    10.6323    -1.6861 H4            1 Compound
     276 H4           7.5198    10.6392     0.5342 H4            1 Compound
     277 H4           7.4829    12.4262     0.6013 H4            1 Compound
     278 H4           9.1848    12.6172    -1.2082 H4            1 Compound
     279 H4           9.2767    10.8372    -1.4274 H4            1 Compound
     280 H4          10.2847    10.6127     0.9305 H4            1 Compound
     281 H4          10.0275    12.3552     1.1364 H4            1 Compound
     282 H4          12.2856    12.0829     1.2167 H4            1 Compound
     283 H4          13.1071    13.2584    -1.1447 H4            1 Compound
     284 H4          11.3841    13.3193    -1.4339 H4            1 Compound
     285 H4          12.9839    14.3818     1.0117 H4            1 Compound
     286 H4          11.1944    14.5858     0.8346 H4            1 Compound
     287 H4          11.5614    15.8932    -1.2712 H4            1 Compound
     288 H4          13.3453    15.6393    -1.1437 H4            1 Compound
     289 H4          13.4140    16.8854     0.9965 H4            1 Compound
     290 H4          11.6217    17.1436     0.9196 H4            1 Compound
     291 H4          12.7025    17.8832    -0.3258 H4            1 Compound
     292 H4          12.9389     9.9149     0.2133 H4            1 Compound
     293 H4          13.0613    10.7425    -1.3804 H4            1 Compound
     294 H4          14.5652    11.3821     1.2866 H4            1 Compound
     295 H4          14.7694    12.4283    -0.1312 H4            1 Compound
     296 H4          16.0735    10.6923    -1.3484 H4            1 Compound
     297 H4          15.7825     9.5257    -0.0028 H4            1 Compound
     298 H4          16.8815    11.0538     1.6025 H4            1 Compound
     299 H4          17.3500    12.2112     0.3235 H4            1 Compound
     300 H4          19.1234    10.7035     1.3530 H4            1 Compound
     301 H4          18.3770     9.2752     0.5835 H4            1 Compound
     302 H4          19.0776    10.2964    -1.6795 H4            1 Compound
     303 H4          19.7454    11.7222    -0.7669 H4            1 Compound
     304 H4          20.4438    10.1006    -0.5283 H4            1 Compound
     305 H4          -4.8692    14.7085    -2.1297 H4            1 Compound
     306 H4          -6.4591    14.8756    -1.4175 H4            1 Compound
     307 H4          -3.7052    15.9579    -0.2999 H4            1 Compound
     308 H4          -5.0200    15.5470     0.7136 H4            1 Compound
     309 H4          -4.8630    17.5239     1.1434 H4            1 Compound
     310 H4          -6.3824    17.5185     0.1653 H4            1 Compound
     311 H4          -5.3911    19.2849     0.5926 H4            1 Compound
     312 H4          -3.7186    19.0418    -0.3572 H4            1 Compound
     313 H4          -4.2674    20.9031     1.0620 H4            1 Compound
     314 H4          -5.8954    21.1780     0.3178 H4            1 Compound
     315 H4          -4.9185    22.3119    -1.5903 H4            1 Compound
     316 H4          -3.2660    21.9082    -1.0982 H4            1 Compound
     317 H4          -5.1540    23.8328     0.5038 H4            1 Compound
     318 H4          -3.5004    23.3925     1.0030 H4            1 Compound
     319 H4          -2.5166    24.7062    -0.9376 H4            1 Compound
     320 H4          -4.1660    25.1384    -1.4911 H4            1 Compound
     321 H4          -4.5046    26.6726     0.4694 H4            1 Compound
     322 H4          -2.9123    26.2464     1.1559 H4            1 Compound
     323 H4          -1.6663    27.5101    -0.5245 H4            1 Compound
     324 H4          -3.0688    27.6919    -1.5856 H4            1 Compound
     325 H4          -3.3060    29.2933     1.0432 H4            1 Compound
     326 H4          -3.9226    29.5836    -0.5936 H4            1 Compound
     327 H4          -1.5380    30.1641    -1.2928 H4            1 Compound
     328 H4          -0.6650    31.0213     1.4705 H4            1 Compound
     329 H4          -0.6973    29.2635     1.1805 H4            1 Compound
     330 H4           0.6413    29.3843    -0.8095 H4            1 Compound
     331 H4           0.7316    31.1835    -0.7639 H4            1 Compound
     332 H4           2.0063    31.1287     1.3376 H4            1 Compound
     333 H4           1.8322    29.3318     1.4511 H4            1 Compound
     334 H4           4.0634    29.9549     0.5368 H4            1 Compound
     335 H4           3.0832    29.0256    -0.6568 H4            1 Compound
     336 H4           3.2749    30.8129    -0.8440 H4            1 Compound
     337 H4          -2.3551    32.1729    -1.4880 H4            1 Compound
     338 H4          -3.3583    32.1498    -0.0514 H4            1 Compound
     339 H4          -1.5249    33.3647     1.2743 H4            1 Compound
     340 H4          -0.3687    33.0912    -0.0672 H4            1 Compound
     341 H4          -1.8205    34.3487    -1.5797 H4            1 Compound
     342 H4          -2.8263    35.0256    -0.3077 H4            1 Compound
     343 H4          -0.9146    36.1891    -1.6855 H4            1 Compound
     344 H4           0.2818    35.5656    -0.5286 H4            1 Compound
     345 H4          -0.4363    37.7141    -0.6350 H4            1 Compound
     346 H4          -2.0645    37.5329     0.1228 H4            1 Compound
     347 H4          -0.5598    39.5491     0.0917 H4            1 Compound
     348 H4           0.7441    38.6126     0.9247 H4            1 Compound
     349 H4          -0.8309    38.9502     1.7062 H4            1 Compound
     350 H4          -7.1444     3.5517     1.9831 H4            1 Compound
     351 H4          -7.6956     2.8971     0.4804 H4            1 Compound
     352 H4          -8.2968     4.7924    -0.6380 H4            1 Compound
     353 H4          -8.2984     5.6722     0.9741 H4            1 Compound
     354 H4         -10.1345     5.2876     0.0285 H4            1 Compound
     355 H4         -10.0163     3.3272     0.0588 H4            1 Compound
     356 H4         -11.6943     4.3693    -0.6631 H4            1 Compound
     357 H4         -11.9312     5.3813     1.0106 H4            1 Compound
     358 H4         -13.4921     5.3785    -0.7474 H4            1 Compound
     359 H4         -13.6877     3.6003    -0.6938 H4            1 Compound
     360 H4         -14.9204     3.8320     1.5414 H4            1 Compound
     361 H4         -14.2297     5.4516     1.6343 H4            1 Compound
     362 H4         -16.3075     6.0921     1.4101 H4            1 Compound
     363 H4         -15.6809     6.3013    -0.2435 H4            1 Compound
     364 H4         -17.7611     6.1237    -0.1952 H4            1 Compound
     365 H4         -17.1859     4.4760    -0.8526 H4            1 Compound
     366 H4         -19.3821     3.8061    -0.4196 H4            1 Compound
     367 H4         -19.2482     5.2348    -1.4724 H4            1 Compound
     368 H4         -20.1598     6.7147     0.3125 H4            1 Compound
     369 H4         -20.3676     5.3171     1.4208 H4            1 Compound
     370 H4         -22.0682     4.2843    -0.1243 H4            1 Compound
     371 H4         -21.8277     5.5744    -1.3307 H4            1 Compound
     372 H4         -23.1634     5.9597     1.4598 H4            1 Compound
     373 H4         -22.9479     7.4427    -0.8893 H4            1 Compound
     374 H4         -22.0436     7.8371     0.6929 H4            1 Compound
     375 H4         -22.2511     9.3082    -1.2003 H4            1 Compound
     376 H4         -24.0535     9.3159    -0.9544 H4            1 Compound
     377 H4         -23.7210    10.2183     1.3468 H4            1 Compound
     378 H4         -21.9288    10.0978     1.1480 H4            1 Compound
     379 H4         -21.9921    11.6867    -0.7646 H4            1 Compound
     380 H4         -23.7831    11.8577    -0.5747 H4            1 Compound
     381 H4         -22.6696    12.4126     0.7363 H4            1 Compound
     382 H4         -24.6700     4.6037    -0.0986 H4            1 Compound
     383 H4         -24.6044     5.9338    -1.2929 H4            1 Compound
     384 H4         -25.9691     5.9707     1.4936 H4            1 Compound
     385 H4         -25.7909     7.4454     0.4804 H4            1 Compound
     386 H4         -27.1515     6.5094    -1.3247 H4            1 Compound
     387 H4         -27.3207     4.9285    -0.4805 H4            1 Compound
     388 H4         -28.6797     5.9422     1.3100 H4            1 Compound
     389 H4         -28.4496     7.5967     0.6299 H4            1 Compound
     390 H4         -29.6912     6.9946    -1.4259 H4            1 Compound
     391 H4         -29.8947     5.2953    -0.8593 H4            1 Compound
     392 H4         -31.3038     6.0672     1.0463 H4            1 Compound
     393 H4         -31.0876     7.7889     0.5332 H4            1 Compound
     394 H4         -31.9639     6.6309    -0.5240 H4            1 Compound
     395 H4          -6.5595     2.6698    -1.5306 H4            1 Compound
     396 H4          -4.8612     2.3306    -1.3692 H4            1 Compound
     397 H4          -7.1611     0.9853     0.4492 H4            1 Compound
     398 H4          -5.5063     0.7446     0.7922 H4            1 Compound
     399 H4          -7.1069    -0.4485    -1.5729 H4            1 Compound
     400 H4          -5.3620    -0.7677    -1.3125 H4            1 Compound
     401 H4          -5.8864    -2.0448     0.8427 H4            1 Compound
     402 H4          -7.6242    -1.6789     0.6719 H4            1 Compound
     403 H4          -7.7898    -3.2888    -1.3104 H4            1 Compound
     404 H4          -6.0439    -3.6585    -1.1684 H4            1 Compound
     405 H4          -6.5217    -4.9215     1.0471 H4            1 Compound
     406 H4          -8.2620    -4.5644     0.8567 H4            1 Compound
     407 H4          -6.5763    -6.5198    -0.9197 H4            1 Compound
     408 H4          -8.2938    -6.1319    -1.2328 H4            1 Compound
     409 H4          -9.0370    -7.4246     0.7932 H4            1 Compound
     410 H4          -7.3480    -7.7712     1.2657 H4            1 Compound
     411 H4          -7.0592    -9.3788    -0.6470 H4            1 Compound
     412 H4          -8.6709    -8.9641    -1.2990 H4            1 Compound
     413 H4          -9.8276   -10.2262     0.5175 H4            1 Compound
     414 H4          -8.2857   -10.6687     1.3166 H4            1 Compound
     415 H4          -7.6945   -12.1958    -0.7107 H4            1 Compound
     416 H4          -9.1189   -11.5412    -1.5065 H4            1 Compound
     417 H4          -9.9253   -13.5600    -1.3029 H4            1 Compound
     418 H4         -11.1826   -13.9477     1.1477 H4            1 Compound
     419 H4         -10.7454   -12.2628     1.3358 H4            1 Compound
     420 H4         -11.9927   -11.8337    -0.8985 H4            1 Compound
     421 H4         -12.3021   -13.6158    -0.9960 H4            1 Compound
     422 H4         -13.5528   -13.5420     1.1789 H4            1 Compound
     423 H4         -13.2839   -11.7578     1.2616 H4            1 Compound
     424 H4         -14.5424   -11.4986    -0.9041 H4            1 Compound
     425 H4         -14.8158   -13.2894    -0.9440 H4            1 Compound
     426 H4         -15.5396   -12.2949     0.3756 H4            1 Compound
     427 H4          -8.0864   -14.9242    -0.3745 H4            1 Compound
     428 H4          -8.8599   -14.7597     1.2382 H4            1 Compound
     429 H4          -9.9747   -16.0612    -1.3699 H4            1 Compound
     430 H4         -11.0687   -15.7896    -0.0037 H4            1 Compound
     431 H4          -9.9056   -17.5148     1.4009 H4            1 Compound
     432 H4          -8.6693   -17.7255     0.1060 H4            1 Compound
     433 H4         -10.4499   -18.3593    -1.4827 H4            1 Compound
     434 H4         -11.7032   -18.4791    -0.2366 H4            1 Compound
     435 H4         -10.5484   -20.5241    -1.3698 H4            1 Compound
     436 H4          -9.1157   -20.2703    -0.3480 H4            1 Compound
     437 H4         -10.5599   -21.1491     1.6108 H4            1 Compound
     438 H4         -12.0058   -21.1380     0.5007 H4            1 Compound
     439 H4         -10.6297   -22.2004     0.1783 H4            1 Compound
@<TRIPOS>BOND
       1        2        1 1
       2      118        1 1
       3      140        1 1
       4        9        1 1
       5        3        2 1
       6       62        2 1
       7        4        3 1
       8       60        3 1
       9        5        4 1
      10        9        4 1
      11        6        5 1
      12      162        5 1
      13        7        6 1
      14       12        6 1
      15        8        7 1
      16       10        7 1
      17        9        8 1
      18      163        8 1
      19       11       10 1
      20       59       10 1
      21       12       11 1
      22       57       11 1
      23       13       12 1
      24       35       12 1
      25       14       13 1
      26      164       13 1
      27      165       13 1
      28       15       14 1
      29      166       14 1
      30      167       14 1
      31       16       15 1
      32      168       15 1
      33      169       15 1
      34       17       16 1
      35      170       16 1
      36      171       16 1
      37       18       17 1
      38      172       17 1
      39      173       17 1
      40       19       18 1
      41      174       18 1
      42      175       18 1
      43       20       19 1
      44      176       19 1
      45      177       19 1
      46       21       20 1
      47      178       20 1
      48      179       20 1
      49       22       21 1
      50      180       21 1
      51      181       21 1
      52       23       22 1
      53      182       22 1
      54      183       22 1
      55       24       23 1
      56      184       23 1
      57      185       23 1
      58       25       24 1
      59       29       24 1
      60      186       24 1
      61       26       25 1
      62      187       25 1
      63      188       25 1
      64       27       26 1
      65      189       26 1
      66      190       26 1
      67       28       27 1
      68      191       27 1
      69      192       27 1
      70      193       28 1
      71      194       28 1
      72      195       28 1
      73       30       29 1
      74      196       29 1
      75      197       29 1
      76       31       30 1
      77      198       30 1
      78      199       30 1
      79       32       31 1
      80      200       31 1
      81      201       31 1
      82       33       32 1
      83      202       32 1
      84      203       32 1
      85       34       33 1
      86      204       33 1
      87      205       33 1
      88      206       34 1
      89      207       34 1
      90      208       34 1
      91       36       35 1
      92      209       35 1
      93      210       35 1
      94       37       36 1
      95      211       36 1
      96      212       36 1
      97       38       37 1
      98      213       37 1
      99      214       37 1
     100       39       38 1
     101      215       38 1
     102      216       38 1
     103       40       39 1
     104      217       39 1
     105      218       39 1
     106       41       40 1
     107      219       40 1
     108      220       40 1
     109       42       41 1
     110      221       41 1
     111      222       41 1
     112       43       42 1
     113      223       42 1
     114      224       42 1
     115       44       43 1
     116      225       43 1
     117      226       43 1
     118       45       44 1
     119      227       44 1
     120      228       44 1
     121       46       45 1
     122      229       45 1
     123      230       45 1
     124       47       46 1
     125       51       46 1
     126      231       46 1
     127       48       47 1
     128      232       47 1
     129      233       47 1
     130       49       48 1
     131      234       48 1
     132      235       48 1
     133       50       49 1
     134      236       49 1
     135      237       49 1
     136      238       50 1
     137      239       50 1
     138      240       50 1
     139       52       51 1
     140      241       51 1
     141      242       51 1
     142       53       52 1
     143      243       52 1
     144      244       52 1
     145       54       53 1
     146      245       53 1
     147      246       53 1
     148       55       54 1
     149      247       54 1
     150      248       54 1
     151       56       55 1
     152      249       55 1
     153      250       55 1
     154      251       56 1
     155      252       56 1
     156      253       56 1
     157       58       57 1
     158      254       57 1
     159       59       58 1
     160      255       58 1
     161       61       60 1
     162       62       61 1
     163       63       61 1
     164      256       62 1
     165       64       63 1
     166       73       63 1
     167       65       64 1
     168      257       64 1
     169       66       65 1
     170       72       65 1
     171       67       66 1
     172       74       66 1
     173       96       66 1
     174       68       67 1
     175       71       67 1
     176       69       68 1
     177      258       68 1
     178       70       69 1
     179      259       69 1
     180       71       70 1
     181       72       71 1
     182       73       72 1
     183       75       74 1
     184      260       74 1
     185      261       74 1
     186       76       75 1
     187      262       75 1
     188      263       75 1
     189       77       76 1
     190      264       76 1
     191      265       76 1
     192       78       77 1
     193      266       77 1
     194      267       77 1
     195       79       78 1
     196      268       78 1
     197      269       78 1
     198       80       79 1
     199      270       79 1
     200      271       79 1
     201       81       80 1
     202      272       80 1
     203      273       80 1
     204       82       81 1
     205      274       81 1
     206      275       81 1
     207       83       82 1
     208      276       82 1
     209      277       82 1
     210       84       83 1
     211      278       83 1
     212      279       83 1
     213       85       84 1
     214      280       84 1
     215      281       84 1
     216       86       85 1
     217       90       85 1
     218      282       85 1
     219       87       86 1
     220      283       86 1
     221      284       86 1
     222       88       87 1
     223      285       87 1
     224      286       87 1
     225       89       88 1
     226      287       88 1
     227      288       88 1
     228      289       89 1
     229      290       89 1
     230      291       89 1
     231       91       90 1
     232      292       90 1
     233      293       90 1
     234       92       91 1
     235      294       91 1
     236      295       91 1
     237       93       92 1
     238      296       92 1
     239      297       92 1
     240       94       93 1
     241      298       93 1
     242      299       93 1
     243       95       94 1
     244      300       94 1
     245      301       94 1
     246      302       95 1
     247      303       95 1
     248      304       95 1
     249       97       96 1
     250      305       96 1
     251      306       96 1
     252       98       97 1
     253      307       97 1
     254      308       97 1
     255       99       98 1
     256      309       98 1
     257      310       98 1
     258      100       99 1
     259      311       99 1
     260      312       99 1
     261      101      100 1
     262      313      100 1
     263      314      100 1
     264      102      101 1
     265      315      101 1
     266      316      101 1
     267      103      102 1
     268      317      102 1
     269      318      102 1
     270      104      103 1
     271      319      103 1
     272      320      103 1
     273      105      104 1
     274      321      104 1
     275      322      104 1
     276      106      105 1
     277      323      105 1
     278      324      105 1
     279      107      106 1
     280      325      106 1
     281      326      106 1
     282      108      107 1
     283      112      107 1
     284      327      107 1
     285      109      108 1
     286      328      108 1
     287      329      108 1
     288      110      109 1
     289      330      109 1
     290      331      109 1
     291      111      110 1
     292      332      110 1
     293      333      110 1
     294      334      111 1
     295      335      111 1
     296      336      111 1
     297      113      112 1
     298      337      112 1
     299      338      112 1
     300      114      113 1
     301      339      113 1
     302      340      113 1
     303      115      114 1
     304      341      114 1
     305      342      114 1
     306      116      115 1
     307      343      115 1
     308      344      115 1
     309      117      116 1
     310      345      116 1
     311      346      116 1
     312      347      117 1
     313      348      117 1
     314      349      117 1
     315      119      118 1
     316      350      118 1
     317      351      118 1
     318      120      119 1
     319      352      119 1
     320      353      119 1
     321      121      120 1
     322      354      120 1
     323      355      120 1
     324      122      121 1
     325      356      121 1
     326      357      121 1
     327      123      122 1
     328      358      122 1
     329      359      122 1
     330      124      123 1
     331      360      123 1
     332      361      123 1
     333      125      124 1
     334      362      124 1
     335      363      124 1
     336      126      125 1
     337      364      125 1
     338      365      125 1
     339      127      126 1
     340      366      126 1
     341      367      126 1
     342      128      127 1
     343      368      127 1
     344      369      127 1
     345      129      128 1
     346      370      128 1
     347      371      128 1
     348      130      129 1
     349      134      129 1
     350      372      129 1
     351      131      130 1
     352      373      130 1
     353      374      130 1
     354      132      131 1
     355      375      131 1
     356      376      131 1
     357      133      132 1
     358      377      132 1
     359      378      132 1
     360      379      133 1
     361      380      133 1
     362      381      133 1
     363      135      134 1
     364      382      134 1
     365      383      134 1
     366      136      135 1
     367      384      135 1
     368      385      135 1
     369      137      136 1
     370      386      136 1
     371      387      136 1
     372      138      137 1
     373      388      137 1
     374      389      137 1
     375      139      138 1
     376      390      138 1
     377      391      138 1
     378      392      139 1
     379      393      139 1
     380      394      139 1
     381      141      140 1
     382      395      140 1
     383      396      140 1
     384      142      141 1
     385      397      141 1
     386      398      141 1
     387      143      142 1
     388      399      142 1
     389      400      142 1
     390      144      143 1
     391      401      143 1
     392      402      143 1
     393      145      144 1
     394      403      144 1
     395      404      144 1
     396      146      145 1
     397      405      145 1
     398      406      145 1
     399      147      146 1
     400      407      146 1
     401      408      146 1
     402      148      147 1
     403      409      147 1
     404      410      147 1
     405      149      148 1
     406      411      148 1
     407      412      148 1
     408      150      149 1
     409      413      149 1
     410      414      149 1
     411      151      150 1
     412      415      150 1
     413      416      150 1
     414      152      151 1
     415      156      151 1
     416      417      151 1
     417      153      152 1
     418      418      152 1
     419      419      152 1
     420      154      153 1
     421      420      153 1
     422      421      153 1
     423      155      154 1
     424      422      154 1
     425      423      154 1
     426      424      155 1
     427      425      155 1
     428      426      155 1
     429      157      156 1
     430      427      156 1
     431      428      156 1
     432      158      157 1
     433      429      157 1
     434      430      157 1
     435      159      158 1
     436      431      158 1
     437      432      158 1
     438      160      159 1
     439      433      159 1
     440      434      159 1
     441      161      160 1
     442      435      160 1
     443      436      160 1
     444      437      161 1
     445      438      161 1
     446      439      161 1
@<TRIPOS>SUBSTRUCTURE
       1 Compound        1 RESIDUE    0 **** ROOT      0
