@<TRIPOS>MOLECULE
Compound
604 617 1 0 1
SMALL
NO_CHARGES
@<TRIPOS>CRYSIN
   39.2495    47.8340    16.7519    90.0000    90.0000    90.0000  1  1
@<TRIPOS>ATOM
       1 C0           5.1022   -12.5089    -0.4792 C0            1 Compound
       2 C1           5.4318   -11.4083    -1.5244 C1            1 Compound
       3 C1           6.6356   -11.9429    -2.2618 C1            1 Compound
       4 C1           7.5085   -12.6194    -1.1880 C1            1 Compound
       5 C1           8.6921   -11.7481    -0.7025 C1            1 Compound
       6 C1           9.4305   -12.3970     0.4561 C1            1 Compound
       7 C1           8.5021   -12.8060     1.5877 C1            1 Compound
       8 C1           8.8780   -14.2018     1.9775 C1            1 Compound
       9 C1          10.3591   -14.2381     1.6665 C1            1 Compound
      10 C0          10.6352   -13.3882     0.3340 C0            1 Compound
      11 C0          10.5797   -14.2632    -0.9960 C0            1 Compound
      12 C0          11.7698   -14.4621    -1.9989 C0            1 Compound
      13 C0          13.1144   -15.0921    -1.5449 C0            1 Compound
      14 C0          12.8970   -16.1126    -0.4549 C0            1 Compound
      15 C0          14.1061   -16.9043     0.0192 C0            1 Compound
      16 C0          14.4542   -18.0770    -0.9178 C0            1 Compound
      17 C0          14.7554   -19.3500    -0.1066 C0            1 Compound
      18 C0          13.4545   -19.9514     0.4986 C0            1 Compound
      19 C0          13.5935   -21.1390     1.4804 C0            1 Compound
      20 C0          14.2851   -22.3858     0.9068 C0            1 Compound
      21 C0          15.8184   -22.3007     0.9948 C0            1 Compound
      22 C0          16.6315   -23.1073    -0.0587 C0            1 Compound
      23 C0          16.5318   -24.6564     0.0644 C0            1 Compound
      24 C0          15.1451   -25.2586    -0.2269 C0            1 Compound
      25 C0          15.1822   -26.7903    -0.2325 C0            1 Compound
      26 C0          13.7859   -27.3652    -0.4700 C0            1 Compound
      27 C0          18.1424   -22.7061     0.0079 C0            1 Compound
      28 C0          18.4103   -21.1981    -0.2124 C0            1 Compound
      29 C0          19.9023   -20.8522    -0.2274 C0            1 Compound
      30 C0          20.0811   -19.3306    -0.3612 C0            1 Compound
      31 C0          21.5576   -18.9268    -0.3340 C0            1 Compound
      32 C0          21.7070   -17.4096    -0.4259 C0            1 Compound
      33 C0          11.9618   -12.5913     0.5831 C0            1 Compound
      34 C0          12.6976   -11.6580    -0.4334 C0            1 Compound
      35 C0          12.0292   -10.4043    -1.0475 C0            1 Compound
      36 C0          11.3087   -10.6767    -2.3703 C0            1 Compound
      37 C0          10.9000    -9.4353    -3.1985 C0            1 Compound
      38 C0          10.0357    -8.3224    -2.5502 C0            1 Compound
      39 C0          10.8504    -7.2524    -1.8012 C0            1 Compound
      40 C0          10.0360    -5.9685    -1.4976 C0            1 Compound
      41 C0          10.8874    -4.7444    -1.0429 C0            1 Compound
      42 C0          11.2838    -4.6622     0.4566 C0            1 Compound
      43 C0          12.2341    -3.4786     0.7730 C0            1 Compound
      44 C0          12.4217    -3.0462     2.2781 C0            1 Compound
      45 C0          11.2007    -2.1985     2.7261 C0            1 Compound
      46 C0          11.1785    -1.7244     4.1990 C0            1 Compound
      47 C0          10.0352    -0.7269     4.4758 C0            1 Compound
      48 C0          10.2700     0.6404     3.8149 C0            1 Compound
      49 C0          13.6967    -2.1710     2.3778 C0            1 Compound
      50 C0          14.9980    -2.9880     2.3988 C0            1 Compound
      51 C0          16.2417    -2.0882     2.3172 C0            1 Compound
      52 C0          16.4059    -1.4686     0.9148 C0            1 Compound
      53 C0          17.5822    -0.4914     0.8021 C0            1 Compound
      54 C0          18.9385    -1.1473     1.0444 C0            1 Compound
      55 C1          10.6452   -15.7050     1.7409 C1            1 Compound
      56 C1           9.5596   -16.4934     1.4343 C1            1 Compound
      57 S2           8.1035   -15.5540     1.0206 S2            1 Compound
      58 C1           7.0159   -12.5369     1.3422 C1            1 Compound
      59 C1           6.5224   -13.0113    -0.0445 C1            1 Compound
      60 S2           7.4096   -10.5684    -3.1859 S2            1 Compound
      61 C1           6.7938    -9.3624    -1.9496 C1            1 Compound
      62 C1           5.8638   -10.0720    -1.0323 C1            1 Compound
      63 C1           6.1966    -8.0570    -2.5094 C1            1 Compound
      64 C1           5.7117    -7.2262    -1.3018 C1            1 Compound
      65 C1           4.4022    -6.4757    -1.5650 C1            1 Compound
      66 F3           4.0959    -5.6816    -0.4769 F3            1 Compound
      67 C1           4.4703    -5.7294    -2.9156 C1            1 Compound
      68 C1           4.5321    -6.8397    -3.9972 C1            1 Compound
      69 C1           5.0845    -8.2096    -3.5688 C1            1 Compound
      70 N4           5.5645    -8.8958    -4.7624 N4            1 Compound
      71 S2           5.1158    -7.9312    -6.1799 S2            1 Compound
      72 N4           5.1330    -6.4411    -5.2456 N4            1 Compound
      73 C1           5.6115    -4.6745    -2.8602 C1            1 Compound
      74 S2           6.0069    -3.6938    -4.3714 S2            1 Compound
      75 C1           5.4818    -2.0999    -3.6070 C1            1 Compound
      76 C1           6.5684    -1.3910    -2.7685 C1            1 Compound
      77 C1           7.4130    -0.3677    -3.5361 C1            1 Compound
      78 C1           8.0166     0.7350    -2.6297 C1            1 Compound
      79 C1           6.9477     1.4434    -1.7787 C1            1 Compound
      80 C1           7.7508     2.4116    -0.9297 C1            1 Compound
      81 C1           9.1729     1.9356    -1.0295 C1            1 Compound
      82 C0           9.3043     0.5660    -1.7546 C0            1 Compound
      83 C0          10.6061     0.5881    -2.6610 C0            1 Compound
      84 C0          11.9217     1.1814    -2.0182 C0            1 Compound
      85 C0          12.4380     0.4971    -0.7269 C0            1 Compound
      86 C0          13.2860     1.3437     0.2560 C0            1 Compound
      87 C0          14.6272     1.9647    -0.1109 C0            1 Compound
      88 C0          14.5928     3.0696    -1.1869 C0            1 Compound
      89 C0          15.7381     4.0705    -0.9104 C0            1 Compound
      90 C0          15.3161     5.1218     0.1602 C0            1 Compound
      91 C0          14.8416     6.4262    -0.5317 C0            1 Compound
      92 C0          14.2632     7.5040     0.3987 C0            1 Compound
      93 C0          15.1091     8.1305     1.5433 C0            1 Compound
      94 C0          16.2835     9.1412     1.2792 C0            1 Compound
      95 C0          16.0062    10.1219     0.1131 C0            1 Compound
      96 C0          17.0226    11.2805     0.0673 C0            1 Compound
      97 C0          16.6535    12.3290    -0.9879 C0            1 Compound
      98 C0          17.6686    13.4721    -0.9950 C0            1 Compound
      99 C0          17.7122     8.5300     1.3144 C0            1 Compound
     100 C0          18.1103     7.6010     0.1712 C0            1 Compound
     101 C0          19.4726     6.9511     0.4568 C0            1 Compound
     102 C0          19.7163     5.7390    -0.4510 C0            1 Compound
     103 C0          21.0372     5.0485    -0.0896 C0            1 Compound
     104 C0          21.2161     3.7522    -0.8736 C0            1 Compound
     105 C0           9.2835    -0.8208    -0.9634 C0            1 Compound
     106 C0           8.4970    -1.1486     0.3502 C0            1 Compound
     107 C0           8.5446    -2.6698     0.5762 C0            1 Compound
     108 C0           7.7876    -3.2021     1.8109 C0            1 Compound
     109 C0           7.8211    -4.7687     1.9861 C0            1 Compound
     110 C0           8.3394    -5.3241     3.3530 C0            1 Compound
     111 C0           9.8226    -5.7695     3.6301 C0            1 Compound
     112 C0          10.1885    -7.2769     3.3694 C0            1 Compound
     113 C0          11.0506    -7.6542     2.1423 C0            1 Compound
     114 C0          12.5821    -7.3311     2.2861 C0            1 Compound
     115 C0          13.3474    -7.6623     0.9658 C0            1 Compound
     116 C0          14.8481    -7.2541     0.8366 C0            1 Compound
     117 C0          15.6846    -8.2775     1.6537 C0            1 Compound
     118 C0          17.1270    -7.9279     2.1028 C0            1 Compound
     119 C0          18.1751    -7.5784     1.0353 C0            1 Compound
     120 C0          18.1903    -6.0859     0.6895 C0            1 Compound
     121 C0          15.2398    -7.2890    -0.6994 C0            1 Compound
     122 C0          14.6470    -6.1668    -1.6173 C0            1 Compound
     123 C0          15.2951    -4.7878    -1.4021 C0            1 Compound
     124 C0          14.6377    -3.5532    -2.0799 C0            1 Compound
     125 C0          14.6445    -3.4559    -3.6117 C0            1 Compound
     126 C0          13.5937    -4.3207    -4.3061 C0            1 Compound
     127 C1           9.9097     2.4654     0.1330 C1            1 Compound
     128 C1           9.0648     3.1204     1.1640 C1            1 Compound
     129 S2           7.3758     2.5225     0.8612 S2            1 Compound
     130 C1           9.0257     4.6626     1.0993 C1            1 Compound
     131 C1           8.4880     5.1795     2.4631 C1            1 Compound
     132 F3           7.1326     5.4249     2.3679 F3            1 Compound
     133 C1           9.2387     6.4060     3.0165 C1            1 Compound
     134 C1           9.5015     7.3795     1.9045 C1            1 Compound
     135 C1          10.0224     6.8877     0.7753 C1            1 Compound
     136 N4          10.2825     7.6659    -0.3486 N4            1 Compound
     137 S2          10.9669     6.7092    -1.6294 S2            1 Compound
     138 N4          10.5641     5.1818    -0.7937 N4            1 Compound
     139 C1          10.2939     5.4294     0.6282 C1            1 Compound
     140 C1           6.2170     0.4480    -0.9052 C1            1 Compound
     141 C1           5.7453    -0.7857    -1.6265 C1            1 Compound
     142 C0           4.2868    -1.2111    -1.6704 C0            1 Compound
     143 C1           4.4584    -2.4763    -2.5635 C1            1 Compound
     144 C1           5.1566    -3.6510    -1.9105 C1            1 Compound
     145 C0           3.7491    -1.6535    -0.2656 C0            1 Compound
     146 C0           2.2478    -2.0485    -0.1493 C0            1 Compound
     147 C0           1.7459    -3.2427    -1.0164 C0            1 Compound
     148 C0           1.2550    -2.8828    -2.4367 C0            1 Compound
     149 C0          -0.0702    -2.0817    -2.4392 C0            1 Compound
     150 C0          -0.2496    -1.3147    -3.7589 C0            1 Compound
     151 C0          -1.6012    -0.5955    -3.9949 C0            1 Compound
     152 C0          -2.1894     0.2399    -2.8292 C0            1 Compound
     153 C0          -3.0629    -0.6396    -1.9171 C0            1 Compound
     154 C0          -3.7180     0.1027    -0.7372 C0            1 Compound
     155 C0          -4.6171    -0.8661     0.0730 C0            1 Compound
     156 C0          -5.9880    -1.1728    -0.5934 C0            1 Compound
     157 C0          -6.9969    -0.0334    -0.2574 C0            1 Compound
     158 C0          -8.4247    -0.2778    -0.7769 C0            1 Compound
     159 C0          -9.3660     0.8564    -0.3573 C0            1 Compound
     160 C0         -10.8025     0.5612    -0.7831 C0            1 Compound
     161 C0          -6.5032    -2.5904    -0.2176 C0            1 Compound
     162 C0          -6.7925    -2.8333     1.2740 C0            1 Compound
     163 C0          -7.6177    -4.1168     1.4977 C0            1 Compound
     164 C0          -6.9486    -5.4164     1.0229 C0            1 Compound
     165 C0          -7.9022    -6.6036     1.2235 C0            1 Compound
     166 C0          -7.2865    -7.9134     0.7441 C0            1 Compound
     167 C0           3.4186    -0.0657    -2.3689 C0            1 Compound
     168 C0           3.3564     1.3835    -1.7764 C0            1 Compound
     169 C0           2.6104     1.5253    -0.4358 C0            1 Compound
     170 C0           2.9868     2.7359     0.4376 C0            1 Compound
     171 C0           2.5958     4.1335    -0.0485 C0            1 Compound
     172 C0           3.4541     4.7561    -1.1604 C0            1 Compound
     173 C0           4.9633     4.8013    -0.8069 C0            1 Compound
     174 C0           5.7683     5.7575    -1.7178 C0            1 Compound
     175 C0           5.5105     7.2393    -1.3721 C0            1 Compound
     176 C0           6.2438     7.6981    -0.0847 C0            1 Compound
     177 C0           5.5342     8.8701     0.6197 C0            1 Compound
     178 C0           5.2570    10.1308    -0.2635 C0            1 Compound
     179 C0           6.3106    11.2375    -0.0001 C0            1 Compound
     180 C0           7.7580    10.7811    -0.2525 C0            1 Compound
     181 C0           8.7553    11.9133     0.0200 C0            1 Compound
     182 C0          10.1931    11.4338    -0.1687 C0            1 Compound
     183 C0           3.8215    10.6755     0.0010 C0            1 Compound
     184 C0           2.7345     9.6811    -0.4834 C0            1 Compound
     185 C0           1.3089    10.0891    -0.1018 C0            1 Compound
     186 C0           0.3494     8.9333    -0.4396 C0            1 Compound
     187 C0          -1.0842     9.2138     0.0130 C0            1 Compound
     188 C0          -1.9730     7.9964    -0.2425 C0            1 Compound
     189 C0           4.2444   -11.9507     0.7220 C0            1 Compound
     190 C0           3.0683   -11.0102     0.3689 C0            1 Compound
     191 C0           1.6880   -11.6490     0.1883 C0            1 Compound
     192 C0           0.9917   -11.8985     1.5373 C0            1 Compound
     193 C0           0.1527   -10.7153     2.1150 C0            1 Compound
     194 C0           0.8061    -9.3549     2.4673 C0            1 Compound
     195 C0           1.0515    -8.3990     1.2696 C0            1 Compound
     196 C0           1.6191    -7.0351     1.7176 C0            1 Compound
     197 C0           0.5214    -6.1096     2.2572 C0            1 Compound
     198 C0           1.0764    -4.7518     2.7146 C0            1 Compound
     199 C0           0.0386    -3.6834     3.1760 C0            1 Compound
     200 C0          -0.8947    -3.1429     2.0504 C0            1 Compound
     201 C0          -1.5102    -1.7554     2.3790 C0            1 Compound
     202 C0          -0.4937    -0.5974     2.3444 C0            1 Compound
     203 C0          -1.1725     0.7419     2.6645 C0            1 Compound
     204 C0          -0.2017     1.9068     2.4973 C0            1 Compound
     205 C0          -2.0403    -4.1396     1.6927 C0            1 Compound
     206 C0          -2.2075    -4.2281     0.1613 C0            1 Compound
     207 C0          -3.2098    -5.2784    -0.3242 C0            1 Compound
     208 C0          -2.6913    -6.7139    -0.1098 C0            1 Compound
     209 C0          -3.6501    -7.7942    -0.6260 C0            1 Compound
     210 C0          -3.8873    -7.7419    -2.1356 C0            1 Compound
     211 C0           4.4071   -13.6610    -1.2911 C0            1 Compound
     212 C0           4.2156   -15.0299    -0.6019 C0            1 Compound
     213 C0           2.8760   -15.2307     0.1082 C0            1 Compound
     214 C0           2.6834   -16.6264     0.7598 C0            1 Compound
     215 C0           2.9443   -17.8730    -0.1390 C0            1 Compound
     216 C0           4.4285   -18.3231    -0.2499 C0            1 Compound
     217 C0           4.9719   -18.9085     1.0695 C0            1 Compound
     218 C0           6.5049   -19.0295     1.0950 C0            1 Compound
     219 C0           7.2463   -19.8841     0.0450 C0            1 Compound
     220 C0           7.1033   -21.4062     0.2015 C0            1 Compound
     221 C0           5.8500   -21.9873    -0.4657 C0            1 Compound
     222 C0           5.6012   -23.4900    -0.1390 C0            1 Compound
     223 C0           6.8429   -24.3689    -0.4689 C0            1 Compound
     224 C0           6.6919   -25.8457    -0.0635 C0            1 Compound
     225 C0           7.9958   -26.6161    -0.3152 C0            1 Compound
     226 C0           7.8642   -28.0779     0.1029 C0            1 Compound
     227 C0           4.3391   -24.0135    -0.8897 C0            1 Compound
     228 C0           3.0669   -23.1526    -0.7558 C0            1 Compound
     229 C0           2.5958   -22.9725     0.6980 C0            1 Compound
     230 C0           1.4227   -21.9865     0.8169 C0            1 Compound
     231 C0           0.1473   -22.4500     0.1005 C0            1 Compound
     232 C0          -0.9692   -21.4235     0.2713 C0            1 Compound
     233 H5           8.3271   -10.7738    -0.3260 H5            1 Compound
     234 H6           9.7836   -13.8577    -1.6456 H6            1 Compound
     235 H6          10.1949   -15.2682    -0.7629 H6            1 Compound
     236 H6          11.3545   -15.1687    -2.7526 H6            1 Compound
     237 H6          11.9841   -13.5375    -2.5655 H6            1 Compound
     238 H6          13.6145   -15.5349    -2.4337 H6            1 Compound
     239 H6          13.8020   -14.3275    -1.1310 H6            1 Compound
     240 H6          12.6271   -15.4863     0.3908 H6            1 Compound
     241 H6          12.0719   -16.8175    -0.7007 H6            1 Compound
     242 H6          14.9955   -16.2786     0.2524 H6            1 Compound
     243 H6          13.7848   -17.2965     1.0024 H6            1 Compound
     244 H6          15.3189   -17.7719    -1.5468 H6            1 Compound
     245 H6          13.6189   -18.3275    -1.6084 H6            1 Compound
     246 H6          15.1842   -20.0992    -0.8064 H6            1 Compound
     247 H6          15.4994   -19.1000     0.6814 H6            1 Compound
     248 H6          12.8859   -19.1872     1.0613 H6            1 Compound
     249 H6          12.8062   -20.2660    -0.3490 H6            1 Compound
     250 H6          14.0804   -20.8318     2.4319 H6            1 Compound
     251 H6          12.5463   -21.4258     1.7254 H6            1 Compound
     252 H6          13.9235   -22.5296    -0.1346 H6            1 Compound
     253 H6          13.9726   -23.2355     1.5413 H6            1 Compound
     254 H6          16.0502   -21.2618     0.8130 H6            1 Compound
     255 H6          16.1585   -22.5014     2.0342 H6            1 Compound
     256 H6          16.2673   -22.8179    -1.0703 H6            1 Compound
     257 H6          17.2186   -25.0886    -0.6970 H6            1 Compound
     258 H6          16.8836   -24.9807     1.0681 H6            1 Compound
     259 H6          14.4268   -24.9745     0.5504 H6            1 Compound
     260 H6          14.7838   -24.8992    -1.2155 H6            1 Compound
     261 H6          15.5552   -27.1587     0.7481 H6            1 Compound
     262 H6          15.8648   -27.1467    -1.0338 H6            1 Compound
     263 H6          13.0930   -27.0404     0.3365 H6            1 Compound
     264 H6          13.3864   -27.0233    -1.4485 H6            1 Compound
     265 H6          13.8316   -28.4741    -0.4694 H6            1 Compound
     266 H6          18.6834   -23.2597    -0.7908 H6            1 Compound
     267 H6          18.5678   -23.0085     0.9901 H6            1 Compound
     268 H6          17.9507   -20.8772    -1.1733 H6            1 Compound
     269 H6          17.9786   -20.6071     0.6181 H6            1 Compound
     270 H6          20.4023   -21.3723    -1.0731 H6            1 Compound
     271 H6          20.3630   -21.1882     0.7278 H6            1 Compound
     272 H6          19.6206   -18.9851    -1.3134 H6            1 Compound
     273 H6          19.5608   -18.8291     0.4858 H6            1 Compound
     274 H6          22.0203   -19.2724     0.6166 H6            1 Compound
     275 H6          22.0910   -19.3996    -1.1863 H6            1 Compound
     276 H6          21.1970   -16.9187     0.4315 H6            1 Compound
     277 H6          21.2655   -17.0331    -1.3732 H6            1 Compound
     278 H6          22.7826   -17.1370    -0.3997 H6            1 Compound
     279 H6          11.7892   -11.9786     1.4973 H6            1 Compound
     280 H6          12.7334   -13.3325     0.8741 H6            1 Compound
     281 H6          13.1913   -12.2198    -1.2427 H6            1 Compound
     282 H6          13.5409   -11.2616     0.1767 H6            1 Compound
     283 H6          12.8604    -9.7243    -1.3348 H6            1 Compound
     284 H6          11.3879    -9.8945    -0.3003 H6            1 Compound
     285 H6          11.9891   -11.2543    -3.0326 H6            1 Compound
     286 H6          10.4459   -11.3203    -2.2136 H6            1 Compound
     287 H6          10.3136    -9.8566    -4.0448 H6            1 Compound
     288 H6          11.7997    -8.9637    -3.6498 H6            1 Compound
     289 H6           9.2471    -8.7429    -1.9048 H6            1 Compound
     290 H6           9.5546    -7.7943    -3.4023 H6            1 Compound
     291 H6          11.6819    -6.9514    -2.4725 H6            1 Compound
     292 H6          11.2353    -7.7057    -0.8905 H6            1 Compound
     293 H6           9.5951    -5.6631    -2.4719 H6            1 Compound
     294 H6           9.1919    -6.1659    -0.8053 H6            1 Compound
     295 H6          11.7725    -4.6779    -1.6980 H6            1 Compound
     296 H6          10.2848    -3.8399    -1.2552 H6            1 Compound
     297 H6          10.3811    -4.6776     1.0772 H6            1 Compound
     298 H6          11.8152    -5.5253     0.7413 H6            1 Compound
     299 H6          11.9263    -2.5786     0.2012 H6            1 Compound
     300 H6          13.2046    -3.7955     0.3662 H6            1 Compound
     301 H6          12.5410    -3.9199     2.9507 H6            1 Compound
     302 H6          10.3002    -2.8108     2.6211 H6            1 Compound
     303 H6          11.1465    -1.3259     2.0456 H6            1 Compound
     304 H6          11.0511    -2.6227     4.8419 H6            1 Compound
     305 H6          12.1044    -1.2164     4.5185 H6            1 Compound
     306 H6           9.9845    -0.5524     5.5720 H6            1 Compound
     307 H6           9.0605    -1.1447     4.1517 H6            1 Compound
     308 H6          11.2268     1.0781     4.1729 H6            1 Compound
     309 H6          10.3055     0.5777     2.7108 H6            1 Compound
     310 H6           9.4465     1.3343     4.0846 H6            1 Compound
     311 H6          13.6537    -1.4514     1.5457 H6            1 Compound
     312 H6          13.7416    -1.5861     3.3112 H6            1 Compound
     313 H6          15.0192    -3.5535     3.3567 H6            1 Compound
     314 H6          15.0436    -3.7274     1.5915 H6            1 Compound
     315 H6          16.1797    -1.2958     3.0954 H6            1 Compound
     316 H6          17.1290    -2.7199     2.5285 H6            1 Compound
     317 H6          15.5015    -0.8956     0.6438 H6            1 Compound
     318 H6          16.5313    -2.2835     0.1717 H6            1 Compound
     319 H6          17.5811    -0.0758    -0.2301 H6            1 Compound
     320 H6          17.4391     0.3512     1.5128 H6            1 Compound
     321 H6          19.0909    -1.9852     0.3317 H6            1 Compound
     322 H6          19.0164    -1.5231     2.0845 H6            1 Compound
     323 H6          19.7387    -0.3938     0.8892 H6            1 Compound
     324 H5          11.5732   -16.1360     2.0898 H5            1 Compound
     325 H7           9.5810   -17.5747     1.4810 H7            1 Compound
     326 H5           6.3986   -12.9486     2.1691 H5            1 Compound
     327 H5           5.9655    -9.8674     0.0224 H5            1 Compound
     328 H5           6.5328    -6.5682    -0.9442 H5            1 Compound
     329 H5           8.1610    -0.8519    -4.1996 H5            1 Compound
     330 H6          10.4114     1.2562    -3.5293 H6            1 Compound
     331 H6          10.7921    -0.4230    -3.0907 H6            1 Compound
     332 H6          11.7191     2.2463    -1.8241 H6            1 Compound
     333 H6          12.7429     1.1805    -2.7674 H6            1 Compound
     334 H6          11.5761     0.2962    -0.0768 H6            1 Compound
     335 H6          12.9289    -0.4674    -0.9806 H6            1 Compound
     336 H6          12.6934     2.1758     0.6580 H6            1 Compound
     337 H6          13.4760     0.6985     1.1366 H6            1 Compound
     338 H6          14.9519     2.4229     0.8514 H6            1 Compound
     339 H6          15.3928     1.2070    -0.3713 H6            1 Compound
     340 H6          14.7139     2.5679    -2.1699 H6            1 Compound
     341 H6          13.6363     3.6367    -1.2009 H6            1 Compound
     342 H6          16.6295     3.4938    -0.5762 H6            1 Compound
     343 H6          16.0496     4.5999    -1.8366 H6            1 Compound
     344 H6          16.1656     5.3298     0.8302 H6            1 Compound
     345 H6          14.5306     4.7127     0.8323 H6            1 Compound
     346 H6          15.6508     6.8663    -1.1483 H6            1 Compound
     347 H6          14.0256     6.1529    -1.2358 H6            1 Compound
     348 H6          13.3761     7.0382     0.8837 H6            1 Compound
     349 H6          13.8760     8.3293    -0.2378 H6            1 Compound
     350 H6          14.3438     8.7512     2.0641 H6            1 Compound
     351 H6          15.4169     7.3617     2.2818 H6            1 Compound
     352 H6          16.2924     9.7632     2.2054 H6            1 Compound
     353 H6          16.0044     9.5804    -0.8572 H6            1 Compound
     354 H6          14.9963    10.5610     0.2730 H6            1 Compound
     355 H6          17.0479    11.7790     1.0619 H6            1 Compound
     356 H6          18.0341    10.8869    -0.1660 H6            1 Compound
     357 H6          16.6285    11.8590    -1.9943 H6            1 Compound
     358 H6          15.6486    12.7475    -0.7610 H6            1 Compound
     359 H6          18.6820    13.0885    -1.2406 H6            1 Compound
     360 H6          17.7012    13.9678    -0.0006 H6            1 Compound
     361 H6          17.3800    14.2269    -1.7563 H6            1 Compound
     362 H6          18.4676     9.3410     1.3791 H6            1 Compound
     363 H6          17.7859     7.9629     2.2693 H6            1 Compound
     364 H6          18.1090     8.1176    -0.8121 H6            1 Compound
     365 H6          17.3843     6.8054     0.1420 H6            1 Compound
     366 H6          19.4747     6.5691     1.5023 H6            1 Compound
     367 H6          20.2818     7.7066     0.3553 H6            1 Compound
     368 H6          18.8860     5.0140    -0.2920 H6            1 Compound
     369 H6          19.7220     6.0457    -1.5192 H6            1 Compound
     370 H6          21.0446     4.7950     0.9937 H6            1 Compound
     371 H6          21.8856     5.7349    -0.3001 H6            1 Compound
     372 H6          21.2194     3.9530    -1.9650 H6            1 Compound
     373 H6          20.3921     3.0452    -0.6333 H6            1 Compound
     374 H6          22.1787     3.2770    -0.5897 H6            1 Compound
     375 H6          10.3091    -1.1308    -0.7314 H6            1 Compound
     376 H6           9.0071    -1.5752    -1.7297 H6            1 Compound
     377 H6           8.9422    -0.5920     1.1986 H6            1 Compound
     378 H6           7.4448    -0.9466     0.3680 H6            1 Compound
     379 H6           9.5915    -2.8748     0.6398 H6            1 Compound
     380 H6           8.1222    -3.1853    -0.3147 H6            1 Compound
     381 H6           8.0835    -2.6885     2.7444 H6            1 Compound
     382 H6           6.7283    -2.8993     1.6411 H6            1 Compound
     383 H6           8.1138    -5.3503     1.0908 H6            1 Compound
     384 H6           6.7323    -4.9979     2.0566 H6            1 Compound
     385 H6           8.0610    -4.5548     4.1071 H6            1 Compound
     386 H6           7.7153    -6.2063     3.6178 H6            1 Compound
     387 H6          10.6081    -5.0456     3.3642 H6            1 Compound
     388 H6           9.8239    -5.7474     4.7430 H6            1 Compound
     389 H6           9.2413    -7.8576     3.3422 H6            1 Compound
     390 H6          10.7523    -7.6697     4.2445 H6            1 Compound
     391 H6          10.5731    -7.2113     1.2508 H6            1 Compound
     392 H6          10.9901    -8.7576     2.0138 H6            1 Compound
     393 H6          12.7201    -6.2609     2.5342 H6            1 Compound
     394 H6          13.0007    -7.9138     3.1323 H6            1 Compound
     395 H6          13.2320    -8.7373     0.7329 H6            1 Compound
     396 H6          12.8538    -7.1267     0.1801 H6            1 Compound
     397 H6          14.9877    -6.2362     1.2545 H6            1 Compound
     398 H6          15.1631    -8.4683     2.6152 H6            1 Compound
     399 H6          15.6874    -9.2426     1.0989 H6            1 Compound
     400 H6          17.1175    -7.1331     2.8799 H6            1 Compound
     401 H6          17.4839    -8.8566     2.6014 H6            1 Compound
     402 H6          19.1819    -7.7798     1.4617 H6            1 Compound
     403 H6          18.0637    -8.2388     0.1493 H6            1 Compound
     404 H6          17.2207    -5.7167     0.3325 H6            1 Compound
     405 H6          18.4456    -5.4944     1.5942 H6            1 Compound
     406 H6          18.9608    -5.8901    -0.0856 H6            1 Compound
     407 H6          14.9050    -8.2714    -1.0982 H6            1 Compound
     408 H6          16.3258    -7.2712    -0.8643 H6            1 Compound
     409 H6          14.8502    -6.4635    -2.6633 H6            1 Compound
     410 H6          13.5593    -6.0880    -1.4923 H6            1 Compound
     411 H6          15.2572    -4.5821    -0.3267 H6            1 Compound
     412 H6          16.3652    -4.8371    -1.6949 H6            1 Compound
     413 H6          13.6036    -3.3921    -1.7300 H6            1 Compound
     414 H6          15.2232    -2.6798    -1.7208 H6            1 Compound
     415 H6          14.3757    -2.4039    -3.8640 H6            1 Compound
     416 H6          15.6621    -3.6499    -4.0088 H6            1 Compound
     417 H6          12.5798    -4.0738    -3.9239 H6            1 Compound
     418 H6          13.6118    -4.1030    -5.3948 H6            1 Compound
     419 H6          13.7787    -5.3980    -4.1775 H6            1 Compound
     420 H5          10.8960     2.8360     0.0264 H5            1 Compound
     421 H5          10.2236     6.0479     3.3846 H5            1 Compound
     422 H5           9.2512     8.4288     2.0042 H5            1 Compound
     423 H5           5.5083     0.8384    -0.1557 H5            1 Compound
     424 H5           5.7077    -3.5722    -0.9837 H5            1 Compound
     425 H6           4.3252    -2.4996     0.1428 H6            1 Compound
     426 H6           3.9952    -0.8977     0.4944 H6            1 Compound
     427 H6           2.1467    -2.3547     0.9120 H6            1 Compound
     428 H6           1.5902    -1.1721    -0.2675 H6            1 Compound
     429 H6           2.5406    -4.0047    -1.0568 H6            1 Compound
     430 H6           0.8910    -3.7296    -0.5206 H6            1 Compound
     431 H6           1.0776    -3.8129    -3.0187 H6            1 Compound
     432 H6           2.0402    -2.3585    -2.9845 H6            1 Compound
     433 H6          -0.8937    -2.8024    -2.2579 H6            1 Compound
     434 H6          -0.0792    -1.3147    -1.6399 H6            1 Compound
     435 H6           0.5467    -0.5406    -3.7825 H6            1 Compound
     436 H6          -0.0787    -1.9917    -4.6236 H6            1 Compound
     437 H6          -1.4113     0.0883    -4.8511 H6            1 Compound
     438 H6          -2.3696    -1.3206    -4.3391 H6            1 Compound
     439 H6          -2.8832     0.9916    -3.2649 H6            1 Compound
     440 H6          -1.3879     0.7871    -2.2860 H6            1 Compound
     441 H6          -3.8491    -1.0963    -2.5509 H6            1 Compound
     442 H6          -2.4517    -1.4469    -1.4926 H6            1 Compound
     443 H6          -4.2962     0.9915    -1.0654 H6            1 Compound
     444 H6          -2.8881     0.4523    -0.0907 H6            1 Compound
     445 H6          -4.7971    -0.4737     1.0973 H6            1 Compound
     446 H6          -4.0509    -1.8005     0.2092 H6            1 Compound
     447 H6          -5.8659    -1.2263    -1.6953 H6            1 Compound
     448 H6          -7.0583     0.0893     0.8467 H6            1 Compound
     449 H6          -6.6185     0.9222    -0.6787 H6            1 Compound
     450 H6          -8.4141    -0.3790    -1.8839 H6            1 Compound
     451 H6          -8.8286    -1.2081    -0.3285 H6            1 Compound
     452 H6          -9.0313     1.8129    -0.8128 H6            1 Compound
     453 H6          -9.3482     0.9598     0.7504 H6            1 Compound
     454 H6         -11.1572    -0.3815    -0.3118 H6            1 Compound
     455 H6         -10.8681     0.4629    -1.8869 H6            1 Compound
     456 H6         -11.4669     1.3875    -0.4542 H6            1 Compound
     457 H6          -7.4239    -2.7832    -0.8050 H6            1 Compound
     458 H6          -5.7629    -3.3408    -0.5680 H6            1 Compound
     459 H6          -5.8420    -2.8578     1.8495 H6            1 Compound
     460 H6          -7.4173    -2.0068     1.6678 H6            1 Compound
     461 H6          -7.8410    -4.2048     2.5833 H6            1 Compound
     462 H6          -8.5845    -3.9970     0.9602 H6            1 Compound
     463 H6          -6.7103    -5.3486    -0.0605 H6            1 Compound
     464 H6          -6.0106    -5.5809     1.5961 H6            1 Compound
     465 H6          -8.8349    -6.4256     0.6440 H6            1 Compound
     466 H6          -8.1633    -6.7007     2.3000 H6            1 Compound
     467 H6          -6.3755    -8.1459     1.3339 H6            1 Compound
     468 H6          -8.0145    -8.7396     0.8830 H6            1 Compound
     469 H6          -7.0322    -7.8487    -0.3363 H6            1 Compound
     470 H6           3.8203     0.0579    -3.3981 H6            1 Compound
     471 H6           2.3732    -0.3776    -2.4632 H6            1 Compound
     472 H6           4.3602     1.8086    -1.7200 H6            1 Compound
     473 H6           2.8273     2.0358    -2.5015 H6            1 Compound
     474 H6           2.8696     0.7118     0.2241 H6            1 Compound
     475 H6           1.5151     1.4462    -0.6005 H6            1 Compound
     476 H6           2.4394     2.5894     1.3939 H6            1 Compound
     477 H6           4.0651     2.7051     0.7024 H6            1 Compound
     478 H6           1.5217     4.1416    -0.3327 H6            1 Compound
     479 H6           2.7082     4.8085     0.8302 H6            1 Compound
     480 H6           3.0455     5.7771    -1.2812 H6            1 Compound
     481 H6           3.3177     4.2390    -2.1307 H6            1 Compound
     482 H6           5.1127     5.0848     0.2533 H6            1 Compound
     483 H6           5.3546     3.7751    -0.9321 H6            1 Compound
     484 H6           5.4752     5.5486    -2.7694 H6            1 Compound
     485 H6           6.8599     5.5668    -1.6245 H6            1 Compound
     486 H6           4.4218     7.3984    -1.2871 H6            1 Compound
     487 H6           5.8648     7.8833    -2.2044 H6            1 Compound
     488 H6           7.3055     7.9039    -0.3271 H6            1 Compound
     489 H6           6.2417     6.8908     0.6672 H6            1 Compound
     490 H6           4.6005     8.4202     0.9890 H6            1 Compound
     491 H6           6.0420     9.1540     1.5675 H6            1 Compound
     492 H6           5.2844     9.8785    -1.3426 H6            1 Compound
     493 H6           6.0894    12.1050    -0.6603 H6            1 Compound
     494 H6           6.2241    11.5771     1.0562 H6            1 Compound
     495 H6           8.0057     9.9451     0.4320 H6            1 Compound
     496 H6           7.8633    10.4350    -1.3039 H6            1 Compound
     497 H6           8.5584    12.7622    -0.6702 H6            1 Compound
     498 H6           8.6387    12.2698     1.0670 H6            1 Compound
     499 H6          10.4172    10.6026     0.5344 H6            1 Compound
     500 H6          10.3514    11.0818    -1.2100 H6            1 Compound
     501 H6          10.8956    12.2685     0.0379 H6            1 Compound
     502 H6           3.7072    10.8786     1.0886 H6            1 Compound
     503 H6           3.6695    11.6298    -0.5499 H6            1 Compound
     504 H6           2.8109     9.5466    -1.5847 H6            1 Compound
     505 H6           2.8793     8.6920    -0.0241 H6            1 Compound
     506 H6           1.2697    10.2643     0.9959 H6            1 Compound
     507 H6           1.0160    11.0232    -0.6280 H6            1 Compound
     508 H6           0.6982     8.0177     0.0907 H6            1 Compound
     509 H6           0.3671     8.7343    -1.5338 H6            1 Compound
     510 H6          -1.0957     9.4312     1.1035 H6            1 Compound
     511 H6          -1.4873    10.0924    -0.5346 H6            1 Compound
     512 H6          -1.5915     7.1173     0.3220 H6            1 Compound
     513 H6          -1.9915     7.7475    -1.3248 H6            1 Compound
     514 H6          -3.0083     8.2073     0.0967 H6            1 Compound
     515 H6           3.9738   -12.7183     1.4728 H6            1 Compound
     516 H6           4.9174   -11.2689     1.2746 H6            1 Compound
     517 H6           3.3136   -10.4125    -0.5289 H6            1 Compound
     518 H6           3.0031   -10.3068     1.2166 H6            1 Compound
     519 H6           1.0145   -10.9983    -0.4098 H6            1 Compound
     520 H6           1.8201   -12.5880    -0.3798 H6            1 Compound
     521 H6           0.2458   -12.7055     1.3703 H6            1 Compound
     522 H6           1.7202   -12.2883     2.2813 H6            1 Compound
     523 H6          -0.2577   -11.1140     3.0693 H6            1 Compound
     524 H6          -0.7161   -10.5136     1.4527 H6            1 Compound
     525 H6           1.7308    -9.5201     3.0613 H6            1 Compound
     526 H6           0.0804    -8.8350     3.1273 H6            1 Compound
     527 H6           0.1180    -8.2463     0.6862 H6            1 Compound
     528 H6           1.7675    -8.8160     0.5568 H6            1 Compound
     529 H6           2.4471    -7.1828     2.4446 H6            1 Compound
     530 H6           2.0386    -6.5264     0.8220 H6            1 Compound
     531 H6          -0.0252    -6.5731     3.1042 H6            1 Compound
     532 H6          -0.1403    -5.9703     1.3869 H6            1 Compound
     533 H6           1.7646    -4.9435     3.5665 H6            1 Compound
     534 H6           1.6805    -4.3225     1.8914 H6            1 Compound
     535 H6           0.6727    -2.8482     3.5307 H6            1 Compound
     536 H6          -0.5575    -4.0307     4.0469 H6            1 Compound
     537 H6          -0.2487    -2.9888     1.1686 H6            1 Compound
     538 H6          -2.2603    -1.5123     1.6007 H6            1 Compound
     539 H6          -2.0320    -1.8019     3.3596 H6            1 Compound
     540 H6           0.3283    -0.7512     3.0708 H6            1 Compound
     541 H6          -0.0612    -0.5470     1.3218 H6            1 Compound
     542 H6          -1.5515     0.7240     3.7089 H6            1 Compound
     543 H6          -2.0307     0.9113     1.9829 H6            1 Compound
     544 H6           0.6768     1.7836     3.1653 H6            1 Compound
     545 H6           0.1399     1.9611     1.4424 H6            1 Compound
     546 H6          -0.7119     2.8608     2.7472 H6            1 Compound
     547 H6          -2.9932    -3.8572     2.1927 H6            1 Compound
     548 H6          -1.8473    -5.1331     2.1070 H6            1 Compound
     549 H6          -1.2367    -4.4604    -0.3209 H6            1 Compound
     550 H6          -2.5212    -3.2418    -0.2046 H6            1 Compound
     551 H6          -3.3364    -5.1117    -1.4140 H6            1 Compound
     552 H6          -4.1878    -5.1241     0.1707 H6            1 Compound
     553 H6          -2.5455    -6.8990     0.9736 H6            1 Compound
     554 H6          -1.7094    -6.8347    -0.6190 H6            1 Compound
     555 H6          -4.6172    -7.7025    -0.0998 H6            1 Compound
     556 H6          -3.2118    -8.7864    -0.3820 H6            1 Compound
     557 H6          -2.9249    -7.8379    -2.6816 H6            1 Compound
     558 H6          -4.5491    -8.5833    -2.4305 H6            1 Compound
     559 H6          -4.3904    -6.7997    -2.4328 H6            1 Compound
     560 H6           5.0900   -13.9026    -2.1355 H6            1 Compound
     561 H6           3.4658   -13.3291    -1.7772 H6            1 Compound
     562 H6           4.1827   -15.7593    -1.4390 H6            1 Compound
     563 H6           5.0816   -15.2653     0.0507 H6            1 Compound
     564 H6           2.0780   -15.0920    -0.6553 H6            1 Compound
     565 H6           2.7243   -14.4710     0.8976 H6            1 Compound
     566 H6           1.6119   -16.6500     1.0573 H6            1 Compound
     567 H6           3.2638   -16.6924     1.6978 H6            1 Compound
     568 H6           2.3915   -18.7362     0.2865 H6            1 Compound
     569 H6           2.5137   -17.6745    -1.1445 H6            1 Compound
     570 H6           4.5140   -19.1131    -1.0267 H6            1 Compound
     571 H6           5.0710   -17.4905    -0.5715 H6            1 Compound
     572 H6           4.4660   -19.8643     1.3118 H6            1 Compound
     573 H6           4.7424   -18.2194     1.9038 H6            1 Compound
     574 H6           6.8882   -17.9994     0.9779 H6            1 Compound
     575 H6           6.8099   -19.3745     2.1073 H6            1 Compound
     576 H6           7.0418   -19.5560    -0.9967 H6            1 Compound
     577 H6           8.3208   -19.6709     0.2429 H6            1 Compound
     578 H6           7.1572   -21.6683     1.2806 H6            1 Compound
     579 H6           7.9758   -21.8610    -0.3135 H6            1 Compound
     580 H6           4.9835   -21.4171    -0.1049 H6            1 Compound
     581 H6           5.9305   -21.8363    -1.5649 H6            1 Compound
     582 H6           5.4264   -23.5629     0.9565 H6            1 Compound
     583 H6           7.7127   -23.9869     0.1033 H6            1 Compound
     584 H6           7.0761   -24.3009    -1.5543 H6            1 Compound
     585 H6           5.8816   -26.3271    -0.6489 H6            1 Compound
     586 H6           6.4428   -25.9012     1.0191 H6            1 Compound
     587 H6           8.8227   -26.1542     0.2678 H6            1 Compound
     588 H6           8.2544   -26.5719    -1.3956 H6            1 Compound
     589 H6           7.0602   -28.5756    -0.4799 H6            1 Compound
     590 H6           7.6285   -28.1492     1.1862 H6            1 Compound
     591 H6           8.8219   -28.6071    -0.0873 H6            1 Compound
     592 H6           4.5730   -24.0746    -1.9755 H6            1 Compound
     593 H6           4.0919   -25.0342    -0.5321 H6            1 Compound
     594 H6           3.2441   -22.1597    -1.2192 H6            1 Compound
     595 H6           2.2676   -23.6457    -1.3470 H6            1 Compound
     596 H6           3.4202   -22.5419     1.3023 H6            1 Compound
     597 H6           2.3237   -23.9573     1.1355 H6            1 Compound
     598 H6           1.7405   -21.0042     0.4071 H6            1 Compound
     599 H6           1.1954   -21.8525     1.8972 H6            1 Compound
     600 H6           0.3329   -22.5712    -0.9866 H6            1 Compound
     601 H6          -0.1829   -23.4236     0.5221 H6            1 Compound
     602 H6          -1.2035   -21.2807     1.3475 H6            1 Compound
     603 H6          -0.6640   -20.4487    -0.1673 H6            1 Compound
     604 H6          -1.8833   -21.7764    -0.2504 H6            1 Compound
@<TRIPOS>BOND
       1        2        1 1
       2      189        1 1
       3      211        1 1
       4       59        1 1
       5        3        2 1
       6       62        2 1
       7        4        3 1
       8       60        3 1
       9        5        4 1
      10       59        4 1
      11        6        5 1
      12      233        5 1
      13        7        6 1
      14       10        6 1
      15        8        7 1
      16       58        7 1
      17        9        8 1
      18       57        8 1
      19       10        9 1
      20       55        9 1
      21       11       10 1
      22       33       10 1
      23       12       11 1
      24      234       11 1
      25      235       11 1
      26       13       12 1
      27      236       12 1
      28      237       12 1
      29       14       13 1
      30      238       13 1
      31      239       13 1
      32       15       14 1
      33      240       14 1
      34      241       14 1
      35       16       15 1
      36      242       15 1
      37      243       15 1
      38       17       16 1
      39      244       16 1
      40      245       16 1
      41       18       17 1
      42      246       17 1
      43      247       17 1
      44       19       18 1
      45      248       18 1
      46      249       18 1
      47       20       19 1
      48      250       19 1
      49      251       19 1
      50       21       20 1
      51      252       20 1
      52      253       20 1
      53       22       21 1
      54      254       21 1
      55      255       21 1
      56       23       22 1
      57       27       22 1
      58      256       22 1
      59       24       23 1
      60      257       23 1
      61      258       23 1
      62       25       24 1
      63      259       24 1
      64      260       24 1
      65       26       25 1
      66      261       25 1
      67      262       25 1
      68      263       26 1
      69      264       26 1
      70      265       26 1
      71       28       27 1
      72      266       27 1
      73      267       27 1
      74       29       28 1
      75      268       28 1
      76      269       28 1
      77       30       29 1
      78      270       29 1
      79      271       29 1
      80       31       30 1
      81      272       30 1
      82      273       30 1
      83       32       31 1
      84      274       31 1
      85      275       31 1
      86      276       32 1
      87      277       32 1
      88      278       32 1
      89       34       33 1
      90      279       33 1
      91      280       33 1
      92       35       34 1
      93      281       34 1
      94      282       34 1
      95       36       35 1
      96      283       35 1
      97      284       35 1
      98       37       36 1
      99      285       36 1
     100      286       36 1
     101       38       37 1
     102      287       37 1
     103      288       37 1
     104       39       38 1
     105      289       38 1
     106      290       38 1
     107       40       39 1
     108      291       39 1
     109      292       39 1
     110       41       40 1
     111      293       40 1
     112      294       40 1
     113       42       41 1
     114      295       41 1
     115      296       41 1
     116       43       42 1
     117      297       42 1
     118      298       42 1
     119       44       43 1
     120      299       43 1
     121      300       43 1
     122       45       44 1
     123       49       44 1
     124      301       44 1
     125       46       45 1
     126      302       45 1
     127      303       45 1
     128       47       46 1
     129      304       46 1
     130      305       46 1
     131       48       47 1
     132      306       47 1
     133      307       47 1
     134      308       48 1
     135      309       48 1
     136      310       48 1
     137       50       49 1
     138      311       49 1
     139      312       49 1
     140       51       50 1
     141      313       50 1
     142      314       50 1
     143       52       51 1
     144      315       51 1
     145      316       51 1
     146       53       52 1
     147      317       52 1
     148      318       52 1
     149       54       53 1
     150      319       53 1
     151      320       53 1
     152      321       54 1
     153      322       54 1
     154      323       54 1
     155       56       55 1
     156      324       55 1
     157       57       56 1
     158      325       56 1
     159       59       58 1
     160      326       58 1
     161       61       60 1
     162       62       61 1
     163       63       61 1
     164      327       62 1
     165       64       63 1
     166       69       63 1
     167       65       64 1
     168      328       64 1
     169       66       65 1
     170       67       65 1
     171       68       67 1
     172       73       67 1
     173       69       68 1
     174       72       68 1
     175       70       69 1
     176       71       70 1
     177       72       71 1
     178       74       73 1
     179      144       73 1
     180       75       74 1
     181       76       75 1
     182      143       75 1
     183       77       76 1
     184      141       76 1
     185       78       77 1
     186      329       77 1
     187       79       78 1
     188       82       78 1
     189       80       79 1
     190      140       79 1
     191       81       80 1
     192      129       80 1
     193       82       81 1
     194      127       81 1
     195       83       82 1
     196      105       82 1
     197       84       83 1
     198      330       83 1
     199      331       83 1
     200       85       84 1
     201      332       84 1
     202      333       84 1
     203       86       85 1
     204      334       85 1
     205      335       85 1
     206       87       86 1
     207      336       86 1
     208      337       86 1
     209       88       87 1
     210      338       87 1
     211      339       87 1
     212       89       88 1
     213      340       88 1
     214      341       88 1
     215       90       89 1
     216      342       89 1
     217      343       89 1
     218       91       90 1
     219      344       90 1
     220      345       90 1
     221       92       91 1
     222      346       91 1
     223      347       91 1
     224       93       92 1
     225      348       92 1
     226      349       92 1
     227       94       93 1
     228      350       93 1
     229      351       93 1
     230       95       94 1
     231       99       94 1
     232      352       94 1
     233       96       95 1
     234      353       95 1
     235      354       95 1
     236       97       96 1
     237      355       96 1
     238      356       96 1
     239       98       97 1
     240      357       97 1
     241      358       97 1
     242      359       98 1
     243      360       98 1
     244      361       98 1
     245      100       99 1
     246      362       99 1
     247      363       99 1
     248      101      100 1
     249      364      100 1
     250      365      100 1
     251      102      101 1
     252      366      101 1
     253      367      101 1
     254      103      102 1
     255      368      102 1
     256      369      102 1
     257      104      103 1
     258      370      103 1
     259      371      103 1
     260      372      104 1
     261      373      104 1
     262      374      104 1
     263      106      105 1
     264      375      105 1
     265      376      105 1
     266      107      106 1
     267      377      106 1
     268      378      106 1
     269      108      107 1
     270      379      107 1
     271      380      107 1
     272      109      108 1
     273      381      108 1
     274      382      108 1
     275      110      109 1
     276      383      109 1
     277      384      109 1
     278      111      110 1
     279      385      110 1
     280      386      110 1
     281      112      111 1
     282      387      111 1
     283      388      111 1
     284      113      112 1
     285      389      112 1
     286      390      112 1
     287      114      113 1
     288      391      113 1
     289      392      113 1
     290      115      114 1
     291      393      114 1
     292      394      114 1
     293      116      115 1
     294      395      115 1
     295      396      115 1
     296      117      116 1
     297      121      116 1
     298      397      116 1
     299      118      117 1
     300      398      117 1
     301      399      117 1
     302      119      118 1
     303      400      118 1
     304      401      118 1
     305      120      119 1
     306      402      119 1
     307      403      119 1
     308      404      120 1
     309      405      120 1
     310      406      120 1
     311      122      121 1
     312      407      121 1
     313      408      121 1
     314      123      122 1
     315      409      122 1
     316      410      122 1
     317      124      123 1
     318      411      123 1
     319      412      123 1
     320      125      124 1
     321      413      124 1
     322      414      124 1
     323      126      125 1
     324      415      125 1
     325      416      125 1
     326      417      126 1
     327      418      126 1
     328      419      126 1
     329      128      127 1
     330      420      127 1
     331      129      128 1
     332      130      128 1
     333      131      130 1
     334      139      130 1
     335      132      131 1
     336      133      131 1
     337      134      133 1
     338      421      133 1
     339      135      134 1
     340      422      134 1
     341      136      135 1
     342      139      135 1
     343      137      136 1
     344      138      137 1
     345      139      138 1
     346      141      140 1
     347      423      140 1
     348      142      141 1
     349      143      142 1
     350      145      142 1
     351      167      142 1
     352      144      143 1
     353      424      144 1
     354      146      145 1
     355      425      145 1
     356      426      145 1
     357      147      146 1
     358      427      146 1
     359      428      146 1
     360      148      147 1
     361      429      147 1
     362      430      147 1
     363      149      148 1
     364      431      148 1
     365      432      148 1
     366      150      149 1
     367      433      149 1
     368      434      149 1
     369      151      150 1
     370      435      150 1
     371      436      150 1
     372      152      151 1
     373      437      151 1
     374      438      151 1
     375      153      152 1
     376      439      152 1
     377      440      152 1
     378      154      153 1
     379      441      153 1
     380      442      153 1
     381      155      154 1
     382      443      154 1
     383      444      154 1
     384      156      155 1
     385      445      155 1
     386      446      155 1
     387      157      156 1
     388      161      156 1
     389      447      156 1
     390      158      157 1
     391      448      157 1
     392      449      157 1
     393      159      158 1
     394      450      158 1
     395      451      158 1
     396      160      159 1
     397      452      159 1
     398      453      159 1
     399      454      160 1
     400      455      160 1
     401      456      160 1
     402      162      161 1
     403      457      161 1
     404      458      161 1
     405      163      162 1
     406      459      162 1
     407      460      162 1
     408      164      163 1
     409      461      163 1
     410      462      163 1
     411      165      164 1
     412      463      164 1
     413      464      164 1
     414      166      165 1
     415      465      165 1
     416      466      165 1
     417      467      166 1
     418      468      166 1
     419      469      166 1
     420      168      167 1
     421      470      167 1
     422      471      167 1
     423      169      168 1
     424      472      168 1
     425      473      168 1
     426      170      169 1
     427      474      169 1
     428      475      169 1
     429      171      170 1
     430      476      170 1
     431      477      170 1
     432      172      171 1
     433      478      171 1
     434      479      171 1
     435      173      172 1
     436      480      172 1
     437      481      172 1
     438      174      173 1
     439      482      173 1
     440      483      173 1
     441      175      174 1
     442      484      174 1
     443      485      174 1
     444      176      175 1
     445      486      175 1
     446      487      175 1
     447      177      176 1
     448      488      176 1
     449      489      176 1
     450      178      177 1
     451      490      177 1
     452      491      177 1
     453      179      178 1
     454      183      178 1
     455      492      178 1
     456      180      179 1
     457      493      179 1
     458      494      179 1
     459      181      180 1
     460      495      180 1
     461      496      180 1
     462      182      181 1
     463      497      181 1
     464      498      181 1
     465      499      182 1
     466      500      182 1
     467      501      182 1
     468      184      183 1
     469      502      183 1
     470      503      183 1
     471      185      184 1
     472      504      184 1
     473      505      184 1
     474      186      185 1
     475      506      185 1
     476      507      185 1
     477      187      186 1
     478      508      186 1
     479      509      186 1
     480      188      187 1
     481      510      187 1
     482      511      187 1
     483      512      188 1
     484      513      188 1
     485      514      188 1
     486      190      189 1
     487      515      189 1
     488      516      189 1
     489      191      190 1
     490      517      190 1
     491      518      190 1
     492      192      191 1
     493      519      191 1
     494      520      191 1
     495      193      192 1
     496      521      192 1
     497      522      192 1
     498      194      193 1
     499      523      193 1
     500      524      193 1
     501      195      194 1
     502      525      194 1
     503      526      194 1
     504      196      195 1
     505      527      195 1
     506      528      195 1
     507      197      196 1
     508      529      196 1
     509      530      196 1
     510      198      197 1
     511      531      197 1
     512      532      197 1
     513      199      198 1
     514      533      198 1
     515      534      198 1
     516      200      199 1
     517      535      199 1
     518      536      199 1
     519      201      200 1
     520      205      200 1
     521      537      200 1
     522      202      201 1
     523      538      201 1
     524      539      201 1
     525      203      202 1
     526      540      202 1
     527      541      202 1
     528      204      203 1
     529      542      203 1
     530      543      203 1
     531      544      204 1
     532      545      204 1
     533      546      204 1
     534      206      205 1
     535      547      205 1
     536      548      205 1
     537      207      206 1
     538      549      206 1
     539      550      206 1
     540      208      207 1
     541      551      207 1
     542      552      207 1
     543      209      208 1
     544      553      208 1
     545      554      208 1
     546      210      209 1
     547      555      209 1
     548      556      209 1
     549      557      210 1
     550      558      210 1
     551      559      210 1
     552      212      211 1
     553      560      211 1
     554      561      211 1
     555      213      212 1
     556      562      212 1
     557      563      212 1
     558      214      213 1
     559      564      213 1
     560      565      213 1
     561      215      214 1
     562      566      214 1
     563      567      214 1
     564      216      215 1
     565      568      215 1
     566      569      215 1
     567      217      216 1
     568      570      216 1
     569      571      216 1
     570      218      217 1
     571      572      217 1
     572      573      217 1
     573      219      218 1
     574      574      218 1
     575      575      218 1
     576      220      219 1
     577      576      219 1
     578      577      219 1
     579      221      220 1
     580      578      220 1
     581      579      220 1
     582      222      221 1
     583      580      221 1
     584      581      221 1
     585      223      222 1
     586      227      222 1
     587      582      222 1
     588      224      223 1
     589      583      223 1
     590      584      223 1
     591      225      224 1
     592      585      224 1
     593      586      224 1
     594      226      225 1
     595      587      225 1
     596      588      225 1
     597      589      226 1
     598      590      226 1
     599      591      226 1
     600      228      227 1
     601      592      227 1
     602      593      227 1
     603      229      228 1
     604      594      228 1
     605      595      228 1
     606      230      229 1
     607      596      229 1
     608      597      229 1
     609      231      230 1
     610      598      230 1
     611      599      230 1
     612      232      231 1
     613      600      231 1
     614      601      231 1
     615      602      232 1
     616      603      232 1
     617      604      232 1
@<TRIPOS>SUBSTRUCTURE
       1 Compound        1 RESIDUE    0 **** ROOT      0
