@<TRIPOS>MOLECULE
Compound
231 237 1 0 1
SMALL
NO_CHARGES
@<TRIPOS>CRYSIN
   61.2919    53.3153     7.6629    90.0000    90.0000    90.0000  1  1
@<TRIPOS>ATOM
       1 C0          -5.4896     3.9727    -0.1189 C0            1 Compound
       2 C1          -5.2204     5.4202    -0.2362 C1            1 Compound
       3 C1          -3.9262     5.7421    -0.0731 C1            1 Compound
       4 C1          -3.2060     4.6354     0.0093 C1            1 Compound
       5 C1          -1.8716     4.4752    -0.0420 C1            1 Compound
       6 C1          -1.2031     3.1063    -0.2055 C1            1 Compound
       7 C1          -1.9948     2.0271    -0.0157 C1            1 Compound
       8 C1          -3.3267     2.1875     0.0707 C1            1 Compound
       9 C1          -3.9774     3.5379     0.1036 C1            1 Compound
      10 C1          -1.2502     0.9366    -0.0212 C1            1 Compound
      11 C1           0.0798     1.2791    -0.0617 C1            1 Compound
      12 C1           0.8587    -0.0191     0.0028 C1            1 Compound
      13 C1           0.1915    -1.2588     0.0301 C1            1 Compound
      14 S2          -1.4372    -0.8165     0.0385 S2            1 Compound
      15 C0           0.3821     2.7753    -0.0923 C0            1 Compound
      16 C0           1.9051     2.4547    -0.5388 C0            1 Compound
      17 C0           3.4183     2.6910    -0.0606 C0            1 Compound
      18 C0           4.8015     1.8630    -0.2517 C0            1 Compound
      19 C0           6.3711     2.2641    -0.2502 C0            1 Compound
      20 C0           7.8350     1.7562     0.1466 C0            1 Compound
      21 C0           9.4035     1.7420    -0.3407 C0            1 Compound
      22 C0          10.9199     1.6492     0.3466 C0            1 Compound
      23 C0          12.3836     1.4474    -0.3774 C0            1 Compound
      24 C0          13.8475     1.2526     0.3589 C0            1 Compound
      25 C0          15.3485     1.0594    -0.3120 C0            1 Compound
      26 C0          16.8662     1.0126     0.3499 C0            1 Compound
      27 C0          18.3307     0.7505    -0.3724 C0            1 Compound
      28 C0          19.8321     0.7114     0.3321 C0            1 Compound
      29 C0          21.3640     0.4916    -0.2972 C0            1 Compound
      30 C0          22.9329     0.3231     0.2882 C0            1 Compound
      31 C0          24.4893     0.1642    -0.2321 C0            1 Compound
      32 C0           0.7218     4.3750    -0.1259 C0            1 Compound
      33 C0           1.3547     5.7707    -0.4094 C0            1 Compound
      34 C0           1.1684     7.1932     0.2841 C0            1 Compound
      35 C0           1.9659     8.4456    -0.2935 C0            1 Compound
      36 C0           1.7592     9.9375     0.1910 C0            1 Compound
      37 C0           2.5194    11.2951    -0.3444 C0            1 Compound
      38 C0           2.3802    12.9121     0.0195 C0            1 Compound
      39 C0           3.2343    14.3230    -0.2792 C0            1 Compound
      40 C0           2.9394    15.9234     0.0873 C0            1 Compound
      41 C0           3.6684    17.3409    -0.2635 C0            1 Compound
      42 C0           3.6022    18.9541     0.1169 C0            1 Compound
      43 C0           4.2406    20.4360     0.0930 C0            1 Compound
      44 C0           4.4965    21.9748    -0.2658 C0            1 Compound
      45 C0           4.6707    23.4851     0.3061 C0            1 Compound
      46 C0           5.1499    24.9343    -0.3228 C0            1 Compound
      47 C0           5.4079    26.4332     0.2575 C0            1 Compound
      48 S2          -3.6988     7.4483    -0.0461 S2            1 Compound
      49 C1          -5.3527     7.9058    -0.0596 C1            1 Compound
      50 C1          -6.0541     6.6688    -0.1474 C1            1 Compound
      51 C1          -5.9201     9.3551     0.0039 C1            1 Compound
      52 C1          -5.0080    10.4578     0.0146 C1            1 Compound
      53 C1          -5.4507    11.8111     0.0195 C1            1 Compound
      54 C1          -6.8334    12.1163     0.0143 C1            1 Compound
      55 C1          -7.7648    11.0627     0.0159 C1            1 Compound
      56 C1          -7.3229     9.6923     0.0174 C1            1 Compound
      57 N3          -8.3362     8.7798     0.0256 N3            1 Compound
      58 S2          -9.7069     9.7105     0.0275 S2            1 Compound
      59 N3          -9.1182    11.2560     0.0149 N3            1 Compound
      60 C0          -6.7969     4.1443     0.6183 C0            1 Compound
      61 C0          -8.3286     4.1524     0.2916 C0            1 Compound
      62 C0          -9.8318     4.3884    -0.0525 C0            1 Compound
      63 C0         -11.2535     5.1158    -0.1924 C0            1 Compound
      64 C0         -12.7762     4.6248    -0.0033 C0            1 Compound
      65 C0         -14.3154     4.9560    -0.0660 C0            1 Compound
      66 C0         -15.8649     5.0405     0.1039 C0            1 Compound
      67 C0         -17.3724     5.3327    -0.0668 C0            1 Compound
      68 C0         -18.8673     5.2849     0.3688 C0            1 Compound
      69 C0         -20.2757     5.6297    -0.3027 C0            1 Compound
      70 C0         -21.8451     5.6623     0.0570 C0            1 Compound
      71 C0         -23.4353     5.9932    -0.0541 C0            1 Compound
      72 C0         -25.0012     5.7920    -0.4211 C0            1 Compound
      73 C0         -26.4603     6.3460     0.0963 C0            1 Compound
      74 C0         -28.0845     6.2914    -0.0726 C0            1 Compound
      75 C0         -29.6580     6.4494    -0.0315 C0            1 Compound
      76 C0          -5.9503     2.5650    -0.9011 C0            1 Compound
      77 C0          -6.2154     1.1348     0.1000 C0            1 Compound
      78 C0          -6.2328    -0.3108    -0.5892 C0            1 Compound
      79 C0          -6.7396    -1.6538     0.1670 C0            1 Compound
      80 C0          -6.9975    -3.2468    -0.0449 C0            1 Compound
      81 C0          -7.3084    -4.8606    -0.1155 C0            1 Compound
      82 C0          -7.4182    -6.4522     0.0889 C0            1 Compound
      83 C0          -8.2617    -7.7711    -0.1715 C0            1 Compound
      84 C0          -8.0593    -9.3378    -0.1083 C0            1 Compound
      85 C0          -8.6764   -10.7486    -0.1912 C0            1 Compound
      86 C0          -8.7165   -12.2771     0.0963 C0            1 Compound
      87 C0          -9.3165   -13.6784    -0.3758 C0            1 Compound
      88 C0          -9.3247   -15.2499     0.0286 C0            1 Compound
      89 C0          -9.9397   -16.7231    -0.3623 C0            1 Compound
      90 C0         -10.0562   -18.2983     0.1495 C0            1 Compound
      91 C0         -10.5378   -19.7910    -0.2329 C0            1 Compound
      92 H4          -1.4372     5.4717    -0.0517 H4            1 Compound
      93 H4          -3.7459     1.1995     0.0113 H4            1 Compound
      94 H4           1.9468    -0.2292     0.0390 H4            1 Compound
      95 H5           0.7060    -2.2790     0.0272 H5            1 Compound
      96 H6           1.8128     2.5137     0.6746 H6            1 Compound
      97 H6           2.1567     1.5273    -0.7492 H6            1 Compound
      98 H6           3.3807     3.8252     0.2092 H6            1 Compound
      99 H6           3.5058     1.8901     0.7739 H6            1 Compound
     100 H6           4.6145     0.7334    -0.4553 H6            1 Compound
     101 H6           4.8842     2.8930    -0.1504 H6            1 Compound
     102 H6           6.5738     3.4390    -0.3944 H6            1 Compound
     103 H6           6.1173     1.5802     0.6617 H6            1 Compound
     104 H6           7.5026     0.7761    -0.3692 H6            1 Compound
     105 H6           7.9874     2.7091     0.7398 H6            1 Compound
     106 H6           9.4848     2.7971    -0.7110 H6            1 Compound
     107 H6           9.3657     0.6364    -0.2599 H6            1 Compound
     108 H6          10.9564     0.6619     0.8683 H6            1 Compound
     109 H6          11.0263     2.6695     0.7927 H6            1 Compound
     110 H6          12.5074     2.4626    -0.8145 H6            1 Compound
     111 H6          12.2682     0.4394    -0.8625 H6            1 Compound
     112 H6          13.6797     0.2469     0.8276 H6            1 Compound
     113 H6          13.9671     2.2560     0.8246 H6            1 Compound
     114 H6          15.4361     2.0485    -0.8202 H6            1 Compound
     115 H6          15.2612    -0.0251    -0.6025 H6            1 Compound
     116 H6          16.8392     0.0466     0.8551 H6            1 Compound
     117 H6          16.9548     2.0520     0.7950 H6            1 Compound
     118 H6          18.3588     1.7198    -0.8895 H6            1 Compound
     119 H6          18.2554    -0.3135    -0.7691 H6            1 Compound
     120 H6          19.7085    -0.2427     0.8880 H6            1 Compound
     121 H6          19.8706     1.7868     0.6519 H6            1 Compound
     122 H6          21.4727     1.5445    -0.6461 H6            1 Compound
     123 H6          21.1669    -0.5656    -0.6237 H6            1 Compound
     124 H6          22.9144    -0.7869     0.2355 H6            1 Compound
     125 H6          23.1459     1.4069     0.4411 H6            1 Compound
     126 H6          25.5722     0.0567     0.0956 H6            1 Compound
     127 H6          25.0179     1.1644    -0.1031 H6            1 Compound
     128 H6          24.8286    -0.9055     0.0006 H6            1 Compound
     129 H6           0.2361     4.6439     0.7896 H6            1 Compound
     130 H6           1.3707     4.3806     0.5996 H6            1 Compound
     131 H6           0.4939     6.0040    -0.9130 H6            1 Compound
     132 H6           2.4570     5.5892    -0.6055 H6            1 Compound
     133 H6          -0.0243     7.4228     0.4459 H6            1 Compound
     134 H6           1.9347     6.9805     0.9652 H6            1 Compound
     135 H6           3.0593     8.1019    -0.5481 H6            1 Compound
     136 H6           1.0673     8.5484    -0.7295 H6            1 Compound
     137 H6           0.5066    10.0718     0.2669 H6            1 Compound
     138 H6           2.5574     9.5826     0.8746 H6            1 Compound
     139 H6           3.5544    11.0468     0.0578 H6            1 Compound
     140 H6           1.6655    11.4416     0.1747 H6            1 Compound
     141 H6           1.1525    13.1356    -0.1044 H6            1 Compound
     142 H6           3.2076    12.7608    -0.6984 H6            1 Compound
     143 H6           4.2922    14.0679     0.1817 H6            1 Compound
     144 H6           2.2687    14.5103    -0.1222 H6            1 Compound
     145 H6           1.7378    16.1994     0.0359 H6            1 Compound
     146 H6           3.7930    15.8212     0.7610 H6            1 Compound
     147 H6           4.8045    16.9969    -0.3796 H6            1 Compound
     148 H6           2.7612    17.6861     0.3063 H6            1 Compound
     149 H6           2.8206    19.2980    -0.6461 H6            1 Compound
     150 H6           4.6444    18.7997    -0.1246 H6            1 Compound
     151 H6           5.1943    20.3820     0.6442 H6            1 Compound
     152 H6           3.2827    20.7199     0.6729 H6            1 Compound
     153 H6           3.6051    22.0854    -0.8124 H6            1 Compound
     154 H6           5.5100    21.8280    -0.7029 H6            1 Compound
     155 H6           5.6045    23.2806     0.7701 H6            1 Compound
     156 H6           3.6013    23.6210     0.6086 H6            1 Compound
     157 H6           4.1082    25.2078    -0.4995 H6            1 Compound
     158 H6           6.2562    24.7459    -0.4653 H6            1 Compound
     159 H6           5.6646    27.4571    -0.1678 H6            1 Compound
     160 H6           6.5091    26.6390     0.0831 H6            1 Compound
     161 H6           4.4430    27.0263     0.1644 H6            1 Compound
     162 H4          -7.1348     6.7152    -0.0939 H4            1 Compound
     163 H4          -3.9326    10.2625     0.0075 H4            1 Compound
     164 H4          -4.7057    12.6216     0.0217 H4            1 Compound
     165 H4          -7.1783    13.1559     0.0130 H4            1 Compound
     166 H6          -6.6846     3.3638     1.3810 H6            1 Compound
     167 H6          -7.1439     4.4588    -0.4647 H6            1 Compound
     168 H6          -8.5352     3.2194     0.8494 H6            1 Compound
     169 H6          -8.3782     5.0517     0.9008 H6            1 Compound
     170 H6          -9.5837     5.3817    -0.6051 H6            1 Compound
     171 H6          -9.7985     3.3212    -0.5776 H6            1 Compound
     172 H6         -11.3497     4.1294    -0.3000 H6            1 Compound
     173 H6         -11.1656     5.8419     0.6528 H6            1 Compound
     174 H6         -12.7407     5.6207    -0.5955 H6            1 Compound
     175 H6         -12.8746     3.4629     0.3196 H6            1 Compound
     176 H6         -14.5212     3.8972    -0.4691 H6            1 Compound
     177 H6         -14.2178     5.8614     0.6151 H6            1 Compound
     178 H6         -15.7730     6.0182    -0.5240 H6            1 Compound
     179 H6         -16.0151     4.1335     0.7490 H6            1 Compound
     180 H6         -17.4160     4.3371    -0.6765 H6            1 Compound
     181 H6         -17.2975     6.3096     0.5818 H6            1 Compound
     182 H6         -18.6345     5.7815    -0.6798 H6            1 Compound
     183 H6         -18.8991     4.1949     0.6743 H6            1 Compound
     184 H6         -20.2490     4.5645    -0.7576 H6            1 Compound
     185 H6         -20.0840     6.7699    -0.1350 H6            1 Compound
     186 H6         -21.7826     6.6015     0.6557 H6            1 Compound
     187 H6         -21.8609     4.5615     0.2914 H6            1 Compound
     188 H6         -23.6160     5.0560     0.5524 H6            1 Compound
     189 H6         -23.3121     7.1092    -0.4274 H6            1 Compound
     190 H6         -24.8709     6.5313     0.4615 H6            1 Compound
     191 H6         -25.1001     4.6018    -0.5308 H6            1 Compound
     192 H6         -26.5604     5.2940     0.3939 H6            1 Compound
     193 H6         -26.3498     7.4559    -0.1919 H6            1 Compound
     194 H6         -28.1500     7.3630     0.2979 H6            1 Compound
     195 H6         -28.3479     5.2001     0.0906 H6            1 Compound
     196 H6         -30.7197     6.6525    -0.0461 H6            1 Compound
     197 H6         -30.2072     5.4559     0.0122 H6            1 Compound
     198 H6         -29.9803     7.5284    -0.0914 H6            1 Compound
     199 H6          -6.9825     2.5600    -1.2819 H6            1 Compound
     200 H6          -5.5696     2.1513    -0.1208 H6            1 Compound
     201 H6          -7.1587     1.3830     0.7222 H6            1 Compound
     202 H6          -5.5256     0.7047     0.9560 H6            1 Compound
     203 H6          -7.1898     0.0808    -0.8971 H6            1 Compound
     204 H6          -5.0940    -0.5089    -0.7289 H6            1 Compound
     205 H6          -5.8979    -1.6902     0.8380 H6            1 Compound
     206 H6          -7.7536    -1.3016     0.4325 H6            1 Compound
     207 H6          -8.0898    -3.0402    -0.2054 H6            1 Compound
     208 H6          -5.9304    -3.2404    -0.3832 H6            1 Compound
     209 H6          -6.2052    -4.9954     0.0184 H6            1 Compound
     210 H6          -8.4067    -4.8589    -0.3297 H6            1 Compound
     211 H6          -8.2601    -6.3783     0.8420 H6            1 Compound
     212 H6          -6.3068    -6.7828     0.2024 H6            1 Compound
     213 H6          -7.3903    -8.1908     0.3655 H6            1 Compound
     214 H6          -9.2182    -7.5369    -0.6908 H6            1 Compound
     215 H6          -8.9878    -9.1487     0.5848 H6            1 Compound
     216 H6          -7.0795    -9.6750    -0.7002 H6            1 Compound
     217 H6          -7.9005   -10.8268     0.7163 H6            1 Compound
     218 H6          -9.7043   -10.5327    -0.5717 H6            1 Compound
     219 H6          -9.6204   -12.0410     0.7781 H6            1 Compound
     220 H6          -7.6894   -12.4049    -0.4101 H6            1 Compound
     221 H6          -8.5917   -13.7988     0.5398 H6            1 Compound
     222 H6         -10.4214   -13.3778    -0.4845 H6            1 Compound
     223 H6         -10.2678   -15.0091     0.6046 H6            1 Compound
     224 H6          -8.2314   -15.4245    -0.3725 H6            1 Compound
     225 H6          -9.1113   -16.8825     0.4121 H6            1 Compound
     226 H6         -11.0575   -16.4572    -0.4186 H6            1 Compound
     227 H6         -11.1379   -18.1830     0.4074 H6            1 Compound
     228 H6          -9.0096   -18.6584    -0.1137 H6            1 Compound
     229 H6         -10.6849   -20.8582     0.0727 H6            1 Compound
     230 H6          -9.6375   -20.4470     0.0406 H6            1 Compound
     231 H6         -11.6568   -19.9544    -0.1422 H6            1 Compound
@<TRIPOS>BOND
       1        2        1 1
       2       60        1 1
       3       76        1 1
       4        9        1 1
       5        3        2 1
       6       50        2 1
       7        4        3 1
       8       48        3 1
       9        5        4 1
      10        9        4 1
      11        6        5 1
      12       92        5 1
      13        7        6 1
      14       15        6 1
      15        8        7 1
      16       10        7 1
      17        9        8 1
      18       93        8 1
      19       11       10 1
      20       14       10 1
      21       12       11 1
      22       15       11 1
      23       13       12 1
      24       94       12 1
      25       14       13 1
      26       95       13 1
      27       16       15 1
      28       32       15 1
      29       17       16 1
      30       96       16 1
      31       97       16 1
      32       18       17 1
      33       98       17 1
      34       99       17 1
      35       19       18 1
      36      100       18 1
      37      101       18 1
      38       20       19 1
      39      102       19 1
      40      103       19 1
      41       21       20 1
      42      104       20 1
      43      105       20 1
      44       22       21 1
      45      106       21 1
      46      107       21 1
      47       23       22 1
      48      108       22 1
      49      109       22 1
      50       24       23 1
      51      110       23 1
      52      111       23 1
      53       25       24 1
      54      112       24 1
      55      113       24 1
      56       26       25 1
      57      114       25 1
      58      115       25 1
      59       27       26 1
      60      116       26 1
      61      117       26 1
      62       28       27 1
      63      118       27 1
      64      119       27 1
      65       29       28 1
      66      120       28 1
      67      121       28 1
      68       30       29 1
      69      122       29 1
      70      123       29 1
      71       31       30 1
      72      124       30 1
      73      125       30 1
      74      126       31 1
      75      127       31 1
      76      128       31 1
      77       33       32 1
      78      129       32 1
      79      130       32 1
      80       34       33 1
      81      131       33 1
      82      132       33 1
      83       35       34 1
      84      133       34 1
      85      134       34 1
      86       36       35 1
      87      135       35 1
      88      136       35 1
      89       37       36 1
      90      137       36 1
      91      138       36 1
      92       38       37 1
      93      139       37 1
      94      140       37 1
      95       39       38 1
      96      141       38 1
      97      142       38 1
      98       40       39 1
      99      143       39 1
     100      144       39 1
     101       41       40 1
     102      145       40 1
     103      146       40 1
     104       42       41 1
     105      147       41 1
     106      148       41 1
     107       43       42 1
     108      149       42 1
     109      150       42 1
     110       44       43 1
     111      151       43 1
     112      152       43 1
     113       45       44 1
     114      153       44 1
     115      154       44 1
     116       46       45 1
     117      155       45 1
     118      156       45 1
     119       47       46 1
     120      157       46 1
     121      158       46 1
     122      159       47 1
     123      160       47 1
     124      161       47 1
     125       49       48 1
     126       50       49 1
     127       51       49 1
     128      162       50 1
     129       52       51 1
     130       56       51 1
     131       53       52 1
     132      163       52 1
     133       54       53 1
     134      164       53 1
     135       55       54 1
     136      165       54 1
     137       56       55 1
     138       59       55 1
     139       57       56 1
     140       58       57 1
     141       59       58 1
     142       61       60 1
     143      166       60 1
     144      167       60 1
     145       62       61 1
     146      168       61 1
     147      169       61 1
     148       63       62 1
     149      170       62 1
     150      171       62 1
     151       64       63 1
     152      172       63 1
     153      173       63 1
     154       65       64 1
     155      174       64 1
     156      175       64 1
     157       66       65 1
     158      176       65 1
     159      177       65 1
     160       67       66 1
     161      178       66 1
     162      179       66 1
     163       68       67 1
     164      180       67 1
     165      181       67 1
     166       69       68 1
     167      182       68 1
     168      183       68 1
     169       70       69 1
     170      184       69 1
     171      185       69 1
     172       71       70 1
     173      186       70 1
     174      187       70 1
     175       72       71 1
     176      188       71 1
     177      189       71 1
     178       73       72 1
     179      190       72 1
     180      191       72 1
     181       74       73 1
     182      192       73 1
     183      193       73 1
     184       75       74 1
     185      194       74 1
     186      195       74 1
     187      196       75 1
     188      197       75 1
     189      198       75 1
     190       77       76 1
     191      199       76 1
     192      200       76 1
     193       78       77 1
     194      201       77 1
     195      202       77 1
     196       79       78 1
     197      203       78 1
     198      204       78 1
     199       80       79 1
     200      205       79 1
     201      206       79 1
     202       81       80 1
     203      207       80 1
     204      208       80 1
     205       82       81 1
     206      209       81 1
     207      210       81 1
     208       83       82 1
     209      211       82 1
     210      212       82 1
     211       84       83 1
     212      213       83 1
     213      214       83 1
     214       85       84 1
     215      215       84 1
     216      216       84 1
     217       86       85 1
     218      217       85 1
     219      218       85 1
     220       87       86 1
     221      219       86 1
     222      220       86 1
     223       88       87 1
     224      221       87 1
     225      222       87 1
     226       89       88 1
     227      223       88 1
     228      224       88 1
     229       90       89 1
     230      225       89 1
     231      226       89 1
     232       91       90 1
     233      227       90 1
     234      228       90 1
     235      229       91 1
     236      230       91 1
     237      231       91 1
@<TRIPOS>SUBSTRUCTURE
       1 Compound        1 RESIDUE    0 **** ROOT      0
