@<TRIPOS>MOLECULE
Compound
439 446 1 0 1
SMALL
NO_CHARGES
@<TRIPOS>CRYSIN
   63.0065    65.0468    10.9532    90.0000    90.0000    90.0000  1  1
@<TRIPOS>ATOM
       1 C0          -5.6540     3.9086     0.0392 C0            1 Compound
       2 C1          -5.4870     5.3055     0.4731 C1            1 Compound
       3 C1          -4.1400     5.6167     0.7168 C1            1 Compound
       4 C1          -3.2842     4.6692     0.4782 C1            1 Compound
       5 C1          -1.8295     4.7919     0.6004 C1            1 Compound
       6 C1          -0.9780     3.7538     0.1350 C1            1 Compound
       7 C1          -1.7073     2.6952    -0.4717 C1            1 Compound
       8 C1          -0.8031     1.8942    -0.9741 C1            1 Compound
       9 C1           0.4949     2.3561    -0.8607 C1            1 Compound
      10 C0           0.6154     3.5942    -0.2062 C0            1 Compound
      11 C0           2.1861     3.4360     0.4996 C0            1 Compound
      12 C0           3.9065     3.3571     0.1916 C0            1 Compound
      13 C0           4.9934     2.5906     1.1469 C0            1 Compound
      14 C0           6.6754     2.6300     1.1421 C0            1 Compound
      15 C0           7.8732     2.1567     0.1080 C0            1 Compound
      16 C0           9.4054     2.0041     0.7361 C0            1 Compound
      17 C0          10.7483     1.7918    -0.1911 C0            1 Compound
      18 C0          12.2165     1.4040     0.4639 C0            1 Compound
      19 C0          13.4921     1.4638    -0.5447 C0            1 Compound
      20 C0          14.9832     0.7667    -0.5013 C0            1 Compound
      21 C0          16.3115     1.0458     0.3810 C0            1 Compound
      22 C0          17.7210     0.5697    -0.3018 C0            1 Compound
      23 C0          17.6864    -0.8840    -0.8548 C0            1 Compound
      24 C0          17.7137    -2.0071     0.1967 C0            1 Compound
      25 C0          17.7072    -3.3746    -0.5073 C0            1 Compound
      26 C0          17.7083    -4.5322     0.4856 C0            1 Compound
      27 C0          19.0740     0.8041     0.5369 C0            1 Compound
      28 C0          20.4340     0.4736    -0.2265 C0            1 Compound
      29 C0          21.7577     0.6162     0.6042 C0            1 Compound
      30 C0          23.0475     0.2970    -0.2260 C0            1 Compound
      31 C0          24.3481     0.3490     0.6198 C0            1 Compound
      32 C0          25.6157     0.0689    -0.2075 C0            1 Compound
      33 C0           0.8112     5.0155    -1.0017 C0            1 Compound
      34 C0           1.4927     6.4478    -0.5115 C0            1 Compound
      35 C0           1.2062     7.4625     0.7474 C0            1 Compound
      36 C0           1.5497     9.0697     0.5425 C0            1 Compound
      37 C0           1.8357    10.1186     1.7975 C0            1 Compound
      38 C0           1.7584    11.8052     1.9513 C0            1 Compound
      39 C0           2.5603    12.9681     1.0940 C0            1 Compound
      40 C0           2.2567    14.5651     0.6965 C0            1 Compound
      41 C0           3.3091    15.7750     0.2938 C0            1 Compound
      42 C0           3.0356    17.2627     0.8352 C0            1 Compound
      43 C0           3.9136    18.4914     0.2355 C0            1 Compound
      44 C0           3.6030    19.9874     0.7693 C0            1 Compound
      45 C0           2.3399    20.6335     0.1502 C0            1 Compound
      46 C0           0.9699    20.2291     0.6777 C0            1 Compound
      47 C0          -0.0995    20.8836    -0.2161 C0            1 Compound
      48 C0          -1.3291    21.2706     0.5769 C0            1 Compound
      49 C0           4.7825    21.0983     0.7329 C0            1 Compound
      50 C0           4.8032    22.3968    -0.2077 C0            1 Compound
      51 C0           5.7251    23.5183     0.3959 C0            1 Compound
      52 C0           5.6498    24.9395    -0.2468 C0            1 Compound
      53 C0           6.5697    25.9214     0.5320 C0            1 Compound
      54 C0           6.5405    27.3633     0.0167 C0            1 Compound
      55 C1           1.3986     1.3296    -1.2834 C1            1 Compound
      56 C1           0.7420     0.1871    -1.7626 C1            1 Compound
      57 S2          -0.9335     0.3870    -1.6878 S2            1 Compound
      58 C1          -3.1683     2.5422    -0.5403 C1            1 Compound
      59 C1          -4.0184     3.5921    -0.0828 C1            1 Compound
      60 S2          -3.7818     7.2388     0.9370 S2            1 Compound
      61 C1          -5.3031     7.7986     0.5175 C1            1 Compound
      62 C1          -6.1564     6.6199     0.3656 C1            1 Compound
      63 C1          -5.5743     9.3117     0.2440 C1            1 Compound
      64 C1          -4.6433    10.4479     0.1345 C1            1 Compound
      65 C1          -5.2493    11.7908     0.0078 C1            1 Compound
      66 C1          -6.5883    11.5623     0.0463 C1            1 Compound
      67 C1          -7.2313    12.7327     0.3471 C1            1 Compound
      68 C1          -6.3290    13.7386     0.5835 C1            1 Compound
      69 C1          -7.0895    14.8935     0.9278 C1            1 Compound
      70 C1          -8.4786    14.6821     0.9630 C1            1 Compound
      71 S2          -8.8455    13.0869     0.5946 S2            1 Compound
      72 C0          -4.7869    13.4112     0.1914 C0            1 Compound
      73 C0          -4.6186    15.0256    -0.4090 C0            1 Compound
      74 C0          -4.3867    16.6765     0.0270 C0            1 Compound
      75 C0          -4.7440    17.9239    -0.9447 C0            1 Compound
      76 C0          -4.2030    19.5033    -0.8539 C0            1 Compound
      77 C0          -4.6809    20.7229     0.1281 C0            1 Compound
      78 C0          -4.7569    22.3049    -0.3904 C0            1 Compound
      79 C0          -3.8619    23.6787    -0.6371 C0            1 Compound
      80 C0          -3.6467    24.9385     0.3843 C0            1 Compound
      81 C0          -3.2576    26.3508    -0.3444 C0            1 Compound
      82 C0          -2.9015    27.7435     0.4283 C0            1 Compound
      83 C0          -2.6523    28.9800    -0.5810 C0            1 Compound
      84 C0          -1.9073    30.4053    -0.3145 C0            1 Compound
      85 C0          -0.5216    30.2048     0.3503 C0            1 Compound
      86 C0           0.5511    29.7269    -0.6240 C0            1 Compound
      87 C0           1.8856    29.5982     0.1129 C0            1 Compound
      88 C0           3.0151    29.2886    -0.8527 C0            1 Compound
      89 C0          -2.5493    31.7118     0.3424 C0            1 Compound
      90 C0          -1.8309    33.0352    -0.2214 C0            1 Compound
      91 C0          -1.9646    34.3800     0.5654 C0            1 Compound
      92 C0          -1.2965    35.5764    -0.1981 C0            1 Compound
      93 C0          -1.2129    36.8806     0.6353 C0            1 Compound
      94 C0          -0.6436    38.0645    -0.1677 C0            1 Compound
      95 C0          -3.2094    13.0697     0.6610 C0            1 Compound
      96 C0          -2.1495    12.8910    -0.5806 C0            1 Compound
      97 C0          -0.6226    12.3904    -0.3432 C0            1 Compound
      98 C0           0.4307    12.4113    -1.6057 C0            1 Compound
      99 C0           1.8262    11.5139    -1.8678 C0            1 Compound
     100 C0           3.3726    11.2606    -1.2715 C0            1 Compound
     101 C0           4.7370    12.0762    -1.5699 C0            1 Compound
     102 C0           6.0115    11.7737    -0.5954 C0            1 Compound
     103 C0           7.5349    11.7567    -1.1624 C0            1 Compound
     104 C0           8.7048    11.6980    -0.0509 C0            1 Compound
     105 C0          10.2182    11.1580    -0.3323 C0            1 Compound
     106 C0          11.5167    12.0723    -0.5976 C0            1 Compound
     107 C0          11.6956    13.2100     0.4548 C0            1 Compound
     108 C0          12.2507    14.4831    -0.2256 C0            1 Compound
     109 C0          12.3644    15.6892     0.7139 C0            1 Compound
     110 C0          12.6766    16.9513    -0.0957 C0            1 Compound
     111 C0          12.8847    11.2096    -0.7929 C0            1 Compound
     112 C0          14.2650    11.6094    -0.0924 C0            1 Compound
     113 C0          15.4990    10.7072    -0.4846 C0            1 Compound
     114 C0          16.8355    11.0462     0.2685 C0            1 Compound
     115 C0          18.0812    10.3543    -0.3597 C0            1 Compound
     116 C0          19.3937    10.6347     0.3980 C0            1 Compound
     117 S2          -7.1187     9.9590     0.1225 S2            1 Compound
     118 C0          -7.0291     4.0895    -0.9810 C0            1 Compound
     119 C0          -8.5708     4.4520    -0.3241 C0            1 Compound
     120 C0         -10.0675     4.1050    -0.9422 C0            1 Compound
     121 C0         -11.4083     4.7048    -0.1545 C0            1 Compound
     122 C0         -12.9874     4.4220    -0.6036 C0            1 Compound
     123 C0         -14.1859     5.0481     0.3404 C0            1 Compound
     124 C0         -15.8166     4.7013     0.4042 C0            1 Compound
     125 C0         -17.0885     5.3944    -0.3581 C0            1 Compound
     126 C0         -18.5928     4.9851     0.1728 C0            1 Compound
     127 C0         -19.9079     5.8230    -0.3004 C0            1 Compound
     128 C0         -21.4091     5.3080     0.0925 C0            1 Compound
     129 C0         -22.5849     6.4125     0.2920 C0            1 Compound
     130 C0         -22.5872     7.6203    -0.6831 C0            1 Compound
     131 C0         -22.9487     8.9141     0.0893 C0            1 Compound
     132 C0         -22.8331    10.1829    -0.7590 C0            1 Compound
     133 C0         -22.9242    11.4253     0.1320 C0            1 Compound
     134 C0         -24.0932     5.9729     0.7062 C0            1 Compound
     135 C0         -25.3501     6.2269    -0.2495 C0            1 Compound
     136 C0         -26.7438     6.0465     0.4770 C0            1 Compound
     137 C0         -28.0212     6.3907    -0.3679 C0            1 Compound
     138 C0         -29.3255     6.3229     0.4831 C0            1 Compound
     139 C0         -30.6083     6.6368    -0.3091 C0            1 Compound
     140 C0          -6.0912     2.4358     0.7676 C0            1 Compound
     141 C0          -6.3078     0.7725     0.2611 C0            1 Compound
     142 C0          -6.6873    -0.6203     1.0634 C0            1 Compound
     143 C0          -6.9122    -1.9970     0.1463 C0            1 Compound
     144 C0          -7.1618    -3.4954     0.7998 C0            1 Compound
     145 C0          -7.5014    -4.8157    -0.1404 C0            1 Compound
     146 C0          -7.6492    -6.2935     0.5692 C0            1 Compound
     147 C0          -8.1815    -7.6551    -0.2018 C0            1 Compound
     148 C0          -8.2056    -9.0007     0.7204 C0            1 Compound
     149 C0          -9.0272   -10.4270     0.6161 C0            1 Compound
     150 C0          -8.7745   -11.7395    -0.2895 C0            1 Compound
     151 C0          -9.4114   -13.1604     0.2380 C0            1 Compound
     152 C0         -10.8881   -13.0934     0.6826 C0            1 Compound
     153 C0         -11.9610   -12.8558    -0.3824 C0            1 Compound
     154 C0         -13.3258   -12.7492     0.3301 C0            1 Compound
     155 C0         -14.4784   -12.4958    -0.6311 C0            1 Compound
     156 C0          -9.1050   -14.4088    -0.7146 C0            1 Compound
     157 C0          -9.7460   -15.8817    -0.6414 C0            1 Compound
     158 C0          -9.8035   -16.6884     0.6914 C0            1 Compound
     159 C0          -9.7914   -18.2657     0.5972 C0            1 Compound
     160 C0         -10.8334   -19.0104    -0.2766 C0            1 Compound
     161 C0         -10.7176   -20.5443    -0.0944 C0            1 Compound
     162 H3          -1.3891     5.7036     0.9699 H3            1 Compound
     163 H4           2.4469     3.5026    -0.5529 H4            1 Compound
     164 H4           2.0866     2.4671     1.0450 H4            1 Compound
     165 H4           4.2650     4.4059     0.0598 H4            1 Compound
     166 H4           4.2085     2.8056    -0.7586 H4            1 Compound
     167 H4           4.7148     1.5134     1.1126 H4            1 Compound
     168 H4           4.7362     2.9436     2.1667 H4            1 Compound
     169 H4           6.9490     3.6692     1.4149 H4            1 Compound
     170 H4           6.9044     2.0027     2.0301 H4            1 Compound
     171 H4           7.6161     1.1625    -0.3178 H4            1 Compound
     172 H4           7.8937     2.8816    -0.7328 H4            1 Compound
     173 H4           9.6119     2.9125     1.3376 H4            1 Compound
     174 H4           9.3607     1.1453     1.4383 H4            1 Compound
     175 H4          10.8796     2.7334    -0.7647 H4            1 Compound
     176 H4          10.5326     0.9891    -0.9284 H4            1 Compound
     177 H4          12.1280     0.3679     0.8533 H4            1 Compound
     178 H4          12.4467     2.0712     1.3207 H4            1 Compound
     179 H4          13.6514     2.5362    -0.7869 H4            1 Compound
     180 H4          13.0773     0.9973    -1.4637 H4            1 Compound
     181 H4          14.8288    -0.3322    -0.4772 H4            1 Compound
     182 H4          15.3549     1.0086    -1.5217 H4            1 Compound
     183 H4          16.4160     2.1415     0.5306 H4            1 Compound
     184 H4          16.1885     0.5785     1.3806 H4            1 Compound
     185 H4          17.8207     1.2120    -1.2044 H4            1 Compound
     186 H4          18.5570    -1.0297    -1.5289 H4            1 Compound
     187 H4          16.8000    -1.0053    -1.5062 H4            1 Compound
     188 H4          16.8289    -1.9158     0.8599 H4            1 Compound
     189 H4          18.6368    -1.9420     0.8131 H4            1 Compound
     190 H4          18.6073    -3.4663    -1.1563 H4            1 Compound
     191 H4          16.8015    -3.4566    -1.1455 H4            1 Compound
     192 H4          16.8093    -4.4821     1.1348 H4            1 Compound
     193 H4          18.6224    -4.5059     1.1159 H4            1 Compound
     194 H4          17.6903    -5.4937    -0.0716 H4            1 Compound
     195 H4          19.0440     0.1918     1.4621 H4            1 Compound
     196 H4          19.1253     1.8675     0.8515 H4            1 Compound
     197 H4          20.5101     1.1327    -1.1177 H4            1 Compound
     198 H4          20.4310    -0.5796    -0.5710 H4            1 Compound
     199 H4          21.7174    -0.0898     1.4620 H4            1 Compound
     200 H4          21.8485     1.6495     1.0008 H4            1 Compound
     201 H4          23.1385     1.0288    -1.0584 H4            1 Compound
     202 H4          22.9707    -0.7223    -0.6642 H4            1 Compound
     203 H4          24.2958    -0.4116     1.4288 H4            1 Compound
     204 H4          24.4613     1.3520     1.0834 H4            1 Compound
     205 H4          25.7504     0.8335    -1.0023 H4            1 Compound
     206 H4          25.5777    -0.9375    -0.6765 H4            1 Compound
     207 H4          26.5144     0.1027     0.4500 H4            1 Compound
     208 H4           1.3565     4.7496    -1.9365 H4            1 Compound
     209 H4          -0.1609     5.3150    -1.4496 H4            1 Compound
     210 H4           2.5916     6.2865    -0.5032 H4            1 Compound
     211 H4           1.3024     7.0865    -1.4015 H4            1 Compound
     212 H4           1.7885     7.0554     1.6005 H4            1 Compound
     213 H4           0.1358     7.4170     1.0297 H4            1 Compound
     214 H4           0.6892     9.4478    -0.0419 H4            1 Compound
     215 H4           2.4443     9.0840    -0.0977 H4            1 Compound
     216 H4           2.8321     9.8170     2.1803 H4            1 Compound
     217 H4           1.0993     9.7854     2.5585 H4            1 Compound
     218 H4           2.0213    12.0078     3.0109 H4            1 Compound
     219 H4           0.6845    12.0282     1.9253 H4            1 Compound
     220 H4           2.1317    12.5423     0.2364 H4            1 Compound
     221 H4           3.6558    12.8061     1.1418 H4            1 Compound
     222 H4           1.2112    14.8993     0.8403 H4            1 Compound
     223 H4           2.0766    14.3791    -0.3943 H4            1 Compound
     224 H4           4.3587    15.4597     0.4592 H4            1 Compound
     225 H4           3.2524    15.9586    -0.8132 H4            1 Compound
     226 H4           1.9790    17.4591     0.6104 H4            1 Compound
     227 H4           3.1659    17.2523     1.9370 H4            1 Compound
     228 H4           4.9652    18.2633     0.5046 H4            1 Compound
     229 H4           3.8594    18.5078    -0.8757 H4            1 Compound
     230 H4           3.4546    19.8424     1.8624 H4            1 Compound
     231 H4           2.4161    20.5587    -0.9567 H4            1 Compound
     232 H4           2.3189    21.7065     0.4234 H4            1 Compound
     233 H4           0.9174    20.6120     1.7233 H4            1 Compound
     234 H4           0.7669    19.1502     0.7075 H4            1 Compound
     235 H4          -0.3470    20.1785    -1.0418 H4            1 Compound
     236 H4           0.2607    21.8282    -0.6840 H4            1 Compound
     237 H4          -1.0677    22.0978     1.2742 H4            1 Compound
     238 H4          -2.0825    21.6439    -0.1333 H4            1 Compound
     239 H4          -1.7379    20.4128     1.1441 H4            1 Compound
     240 H4           4.6540    21.5847     1.7252 H4            1 Compound
     241 H4           5.7862    20.6288     0.7853 H4            1 Compound
     242 H4           5.0951    22.1513    -1.2505 H4            1 Compound
     243 H4           3.8171    22.8910    -0.2585 H4            1 Compound
     244 H4           5.4162    23.6734     1.4533 H4            1 Compound
     245 H4           6.7775    23.1698     0.3854 H4            1 Compound
     246 H4           5.9615    24.9089    -1.3125 H4            1 Compound
     247 H4           4.6048    25.3237    -0.1975 H4            1 Compound
     248 H4           6.2619    25.9520     1.6009 H4            1 Compound
     249 H4           7.6182    25.5621     0.4763 H4            1 Compound
     250 H4           7.2379    27.9905     0.6185 H4            1 Compound
     251 H4           5.5286    27.7863     0.1353 H4            1 Compound
     252 H4           6.8502    27.4250    -1.0470 H4            1 Compound
     253 H3           2.4713     1.3644    -1.2244 H3            1 Compound
     254 H5           1.2332    -0.7154    -2.1016 H5            1 Compound
     255 H3          -3.5967     1.6654    -1.0043 H3            1 Compound
     256 H3          -7.1481     6.7953     0.0261 H3            1 Compound
     257 H3          -3.5811    10.2883     0.2391 H3            1 Compound
     258 H3          -6.7109    15.8753     1.0987 H3            1 Compound
     259 H5          -9.2315    15.4341     1.1638 H5            1 Compound
     260 H4          -3.9406    14.9305    -1.2719 H4            1 Compound
     261 H4          -4.2199    15.0954     0.6044 H4            1 Compound
     262 H4          -3.2949    16.8329     0.2349 H4            1 Compound
     263 H4          -4.9134    16.9613     0.9761 H4            1 Compound
     264 H4          -4.3382    17.5809    -1.9179 H4            1 Compound
     265 H4          -5.8503    17.9496    -1.0579 H4            1 Compound
     266 H4          -4.5360    19.8829    -1.8420 H4            1 Compound
     267 H4          -3.0959    19.4996    -0.8890 H4            1 Compound
     268 H4          -4.2498    20.6415     1.1483 H4            1 Compound
     269 H4          -5.7582    20.4792     0.2522 H4            1 Compound
     270 H4          -5.6149    22.7247     0.1767 H4            1 Compound
     271 H4          -5.1511    22.1245    -1.4137 H4            1 Compound
     272 H4          -4.4740    24.1932    -1.4102 H4            1 Compound
     273 H4          -2.9081    23.4495    -1.1532 H4            1 Compound
     274 H4          -2.8783    24.6702     1.1391 H4            1 Compound
     275 H4          -4.6013    25.1269     0.9217 H4            1 Compound
     276 H4          -4.1075    26.5897    -1.0183 H4            1 Compound
     277 H4          -2.3756    26.1398    -0.9836 H4            1 Compound
     278 H4          -1.9723    27.5662     1.0085 H4            1 Compound
     279 H4          -3.7041    28.0304     1.1412 H4            1 Compound
     280 H4          -3.6153    29.2060    -1.0871 H4            1 Compound
     281 H4          -2.0056    28.5236    -1.3571 H4            1 Compound
     282 H4          -1.7617    30.7802    -1.3548 H4            1 Compound
     283 H4          -0.1274    31.1626     0.7514 H4            1 Compound
     284 H4          -0.6272    29.5458     1.2357 H4            1 Compound
     285 H4           0.2755    28.7569    -1.0836 H4            1 Compound
     286 H4           0.6537    30.4938    -1.4267 H4            1 Compound
     287 H4           2.1335    30.5535     0.6279 H4            1 Compound
     288 H4           1.8073    28.7940     0.8768 H4            1 Compound
     289 H4           3.1246    30.1111    -1.5913 H4            1 Compound
     290 H4           3.9534    29.2211    -0.2759 H4            1 Compound
     291 H4           2.8262    28.3316    -1.3825 H4            1 Compound
     292 H4          -2.4544    31.6466     1.4480 H4            1 Compound
     293 H4          -3.6258    31.8149     0.0927 H4            1 Compound
     294 H4          -2.1929    33.1936    -1.2612 H4            1 Compound
     295 H4          -0.7360    32.8879    -0.3042 H4            1 Compound
     296 H4          -1.4517    34.2559     1.5442 H4            1 Compound
     297 H4          -3.0289    34.6336     0.7489 H4            1 Compound
     298 H4          -1.8781    35.7774    -1.1247 H4            1 Compound
     299 H4          -0.2570    35.3116    -0.4937 H4            1 Compound
     300 H4          -0.5513    36.7113     1.5131 H4            1 Compound
     301 H4          -2.2200    37.1719     0.9996 H4            1 Compound
     302 H4          -1.3074    38.3172    -1.0223 H4            1 Compound
     303 H4           0.3738    37.8425    -0.5553 H4            1 Compound
     304 H4          -0.5711    38.9662     0.4820 H4            1 Compound
     305 H4          -2.7913    13.8425     1.3397 H4            1 Compound
     306 H4          -3.1807    12.1751     1.3129 H4            1 Compound
     307 H4          -2.6046    12.1817    -1.3034 H4            1 Compound
     308 H4          -2.0715    13.8734    -1.0820 H4            1 Compound
     309 H4          -0.2287    13.0706     0.4247 H4            1 Compound
     310 H4          -0.7080    11.3568     0.0496 H4            1 Compound
     311 H4           0.6268    13.4771    -1.8397 H4            1 Compound
     312 H4          -0.2183    12.0549    -2.4332 H4            1 Compound
     313 H4           1.3981    10.4981    -1.8185 H4            1 Compound
     314 H4           2.0310    11.6901    -2.9423 H4            1 Compound
     315 H4           3.3733    11.0194    -0.2027 H4            1 Compound
     316 H4           3.6449    10.2635    -1.6742 H4            1 Compound
     317 H4           5.0149    11.8198    -2.6118 H4            1 Compound
     318 H4           4.5587    13.1718    -1.5366 H4            1 Compound
     319 H4           5.9481    12.5123     0.2353 H4            1 Compound
     320 H4           5.8636    10.7810    -0.1171 H4            1 Compound
     321 H4           7.6040    10.8289    -1.7707 H4            1 Compound
     322 H4           7.7222    12.6229    -1.8254 H4            1 Compound
     323 H4           8.7281    12.6489     0.5194 H4            1 Compound
     324 H4           8.3129    10.9483     0.6665 H4            1 Compound
     325 H4          10.5038    10.6235     0.5992 H4            1 Compound
     326 H4          10.1540    10.3789    -1.1220 H4            1 Compound
     327 H4          11.2858    12.5670    -1.5647 H4            1 Compound
     328 H4          12.2986    12.8767     1.3279 H4            1 Compound
     329 H4          10.7123    13.5107     0.8561 H4            1 Compound
     330 H4          13.2319    14.3066    -0.7053 H4            1 Compound
     331 H4          11.5279    14.7558    -1.0252 H4            1 Compound
     332 H4          11.4006    15.8525     1.2422 H4            1 Compound
     333 H4          13.1627    15.5134     1.4676 H4            1 Compound
     334 H4          13.6308    16.8368    -0.6525 H4            1 Compound
     335 H4          11.8592    17.1432    -0.8264 H4            1 Compound
     336 H4          12.7525    17.8315     0.5756 H4            1 Compound
     337 H4          13.0677    11.1280    -1.8861 H4            1 Compound
     338 H4          12.6894    10.1745    -0.4428 H4            1 Compound
     339 H4          14.5563    12.6410    -0.3617 H4            1 Compound
     340 H4          14.1433    11.5535     1.0098 H4            1 Compound
     341 H4          15.6748    10.8351    -1.5732 H4            1 Compound
     342 H4          15.2742     9.6350    -0.2931 H4            1 Compound
     343 H4          16.7455    10.7440     1.3361 H4            1 Compound
     344 H4          17.0250    12.1397     0.2313 H4            1 Compound
     345 H4          18.2095    10.7333    -1.3970 H4            1 Compound
     346 H4          17.9461     9.2525    -0.4027 H4            1 Compound
     347 H4          19.3747    10.1844     1.4134 H4            1 Compound
     348 H4          19.5883    11.7245     0.4878 H4            1 Compound
     349 H4          20.2533    10.1848    -0.1514 H4            1 Compound
     350 H4          -7.1926     3.1450    -1.5480 H4            1 Compound
     351 H4          -6.8197     4.8173    -1.7849 H4            1 Compound
     352 H4          -8.6366     5.5356    -0.2578 H4            1 Compound
     353 H4          -8.5921     4.0736     0.7014 H4            1 Compound
     354 H4         -10.1135     4.4655    -1.9905 H4            1 Compound
     355 H4         -10.1622     2.9983    -0.9617 H4            1 Compound
     356 H4         -11.3264     4.3455     0.8933 H4            1 Compound
     357 H4         -11.2898     5.8081    -0.1290 H4            1 Compound
     358 H4         -13.1440     4.7833    -1.6407 H4            1 Compound
     359 H4         -13.1248     3.3205    -0.6013 H4            1 Compound
     360 H4         -13.8521     4.6899     1.3390 H4            1 Compound
     361 H4         -14.0786     6.1528     0.3691 H4            1 Compound
     362 H4         -15.9375     3.5999     0.3636 H4            1 Compound
     363 H4         -16.0654     4.9899     1.4513 H4            1 Compound
     364 H4         -16.9898     6.4922    -0.2259 H4            1 Compound
     365 H4         -17.0350     5.1760    -1.4451 H4            1 Compound
     366 H4         -18.7544     3.9136    -0.0611 H4            1 Compound
     367 H4         -18.5903     5.0838     1.2807 H4            1 Compound
     368 H4         -19.7744     6.8379     0.1277 H4            1 Compound
     369 H4         -19.9063     5.9267    -1.4064 H4            1 Compound
     370 H4         -21.7205     4.5166    -0.6198 H4            1 Compound
     371 H4         -21.3357     4.8106     1.0870 H4            1 Compound
     372 H4         -22.1718     6.8266     1.2376 H4            1 Compound
     373 H4         -23.2489     7.4392    -1.5588 H4            1 Compound
     374 H4         -21.5674     7.7756    -1.0791 H4            1 Compound
     375 H4         -22.2130     9.0123     0.9181 H4            1 Compound
     376 H4         -23.9649     8.8574     0.5371 H4            1 Compound
     377 H4         -23.6351    10.2006    -1.5277 H4            1 Compound
     378 H4         -21.8447    10.2047    -1.2657 H4            1 Compound
     379 H4         -22.0978    11.4180     0.8781 H4            1 Compound
     380 H4         -23.8925    11.4558     0.6745 H4            1 Compound
     381 H4         -22.8224    12.3433    -0.4827 H4            1 Compound
     382 H4         -24.3423     6.6021     1.5886 H4            1 Compound
     383 H4         -24.1034     4.9256     1.0753 H4            1 Compound
     384 H4         -25.3057     5.5739    -1.1461 H4            1 Compound
     385 H4         -25.3433     7.2830    -0.5910 H4            1 Compound
     386 H4         -26.7578     6.7239     1.3582 H4            1 Compound
     387 H4         -26.8450     5.0021     0.8412 H4            1 Compound
     388 H4         -28.1117     5.6849    -1.2218 H4            1 Compound
     389 H4         -27.9409     7.4234    -0.7722 H4            1 Compound
     390 H4         -29.2615     7.0590     1.3143 H4            1 Compound
     391 H4         -29.4426     5.3091     0.9218 H4            1 Compound
     392 H4         -30.7717     5.8952    -1.1193 H4            1 Compound
     393 H4         -30.5756     7.6565    -0.7482 H4            1 Compound
     394 H4         -31.4920     6.5924     0.3698 H4            1 Compound
     395 H4          -7.0987     2.6248     1.1889 H4            1 Compound
     396 H4          -5.8929     2.2569    -0.2765 H4            1 Compound
     397 H4          -7.1417     0.7549    -0.5030 H4            1 Compound
     398 H4          -5.3680     0.3896    -0.2413 H4            1 Compound
     399 H4          -7.6215    -0.4559     1.6403 H4            1 Compound
     400 H4          -5.8698    -0.8209     1.7871 H4            1 Compound
     401 H4          -6.0214    -2.1018    -0.5086 H4            1 Compound
     402 H4          -7.7795    -1.7919    -0.5165 H4            1 Compound
     403 H4          -8.0063    -3.4067     1.5133 H4            1 Compound
     404 H4          -6.2513    -3.7405     1.3853 H4            1 Compound
     405 H4          -6.7106    -4.9086    -0.9161 H4            1 Compound
     406 H4          -8.4555    -4.6014    -0.6657 H4            1 Compound
     407 H4          -6.6543    -6.5350     0.9987 H4            1 Compound
     408 H4          -8.3522    -6.1544     1.4152 H4            1 Compound
     409 H4          -9.2189    -7.4500    -0.5388 H4            1 Compound
     410 H4          -7.5674    -7.8626    -1.1056 H4            1 Compound
     411 H4          -7.1482    -9.2556     0.9451 H4            1 Compound
     412 H4          -8.6362    -8.5980     1.6605 H4            1 Compound
     413 H4         -10.1095   -10.1915     0.5421 H4            1 Compound
     414 H4          -8.8665   -10.8461     1.6331 H4            1 Compound
     415 H4          -7.6788   -11.9156    -0.3454 H4            1 Compound
     416 H4          -9.1312   -11.5297    -1.3199 H4            1 Compound
     417 H4          -8.8900   -13.3949     1.1935 H4            1 Compound
     418 H4         -11.1347   -14.0491     1.1970 H4            1 Compound
     419 H4         -10.9628   -12.2947     1.4498 H4            1 Compound
     420 H4         -11.7488   -11.9122    -0.9257 H4            1 Compound
     421 H4         -11.9760   -13.7005    -1.1056 H4            1 Compound
     422 H4         -13.5361   -13.6871     0.8923 H4            1 Compound
     423 H4         -13.2920   -11.9080     1.0577 H4            1 Compound
     424 H4         -14.3111   -11.5528    -1.1917 H4            1 Compound
     425 H4         -14.5844   -13.3425    -1.3403 H4            1 Compound
     426 H4         -15.4210   -12.3992    -0.0487 H4            1 Compound
     427 H4          -9.3231   -14.0852    -1.7537 H4            1 Compound
     428 H4          -8.0046   -14.5530    -0.6535 H4            1 Compound
     429 H4          -9.1342   -16.4855    -1.3495 H4            1 Compound
     430 H4         -10.7765   -15.8862    -1.0595 H4            1 Compound
     431 H4         -10.7049   -16.3656     1.2550 H4            1 Compound
     432 H4          -8.9108   -16.4388     1.2974 H4            1 Compound
     433 H4          -8.7904   -18.5917     0.2404 H4            1 Compound
     434 H4          -9.9081   -18.6460     1.6377 H4            1 Compound
     435 H4         -11.8685   -18.7180    -0.0055 H4            1 Compound
     436 H4         -10.6563   -18.7752    -1.3477 H4            1 Compound
     437 H4          -9.6940   -20.9107    -0.3295 H4            1 Compound
     438 H4         -10.9582   -20.8393     0.9513 H4            1 Compound
     439 H4         -11.4287   -21.0806    -0.7620 H4            1 Compound
@<TRIPOS>BOND
       1        2        1 1
       2      118        1 1
       3      140        1 1
       4       59        1 1
       5        3        2 1
       6       62        2 1
       7        4        3 1
       8       60        3 1
       9        5        4 1
      10       59        4 1
      11        6        5 1
      12      162        5 1
      13        7        6 1
      14       10        6 1
      15        8        7 1
      16       58        7 1
      17        9        8 1
      18       57        8 1
      19       10        9 1
      20       55        9 1
      21       11       10 1
      22       33       10 1
      23       12       11 1
      24      163       11 1
      25      164       11 1
      26       13       12 1
      27      165       12 1
      28      166       12 1
      29       14       13 1
      30      167       13 1
      31      168       13 1
      32       15       14 1
      33      169       14 1
      34      170       14 1
      35       16       15 1
      36      171       15 1
      37      172       15 1
      38       17       16 1
      39      173       16 1
      40      174       16 1
      41       18       17 1
      42      175       17 1
      43      176       17 1
      44       19       18 1
      45      177       18 1
      46      178       18 1
      47       20       19 1
      48      179       19 1
      49      180       19 1
      50       21       20 1
      51      181       20 1
      52      182       20 1
      53       22       21 1
      54      183       21 1
      55      184       21 1
      56       23       22 1
      57       27       22 1
      58      185       22 1
      59       24       23 1
      60      186       23 1
      61      187       23 1
      62       25       24 1
      63      188       24 1
      64      189       24 1
      65       26       25 1
      66      190       25 1
      67      191       25 1
      68      192       26 1
      69      193       26 1
      70      194       26 1
      71       28       27 1
      72      195       27 1
      73      196       27 1
      74       29       28 1
      75      197       28 1
      76      198       28 1
      77       30       29 1
      78      199       29 1
      79      200       29 1
      80       31       30 1
      81      201       30 1
      82      202       30 1
      83       32       31 1
      84      203       31 1
      85      204       31 1
      86      205       32 1
      87      206       32 1
      88      207       32 1
      89       34       33 1
      90      208       33 1
      91      209       33 1
      92       35       34 1
      93      210       34 1
      94      211       34 1
      95       36       35 1
      96      212       35 1
      97      213       35 1
      98       37       36 1
      99      214       36 1
     100      215       36 1
     101       38       37 1
     102      216       37 1
     103      217       37 1
     104       39       38 1
     105      218       38 1
     106      219       38 1
     107       40       39 1
     108      220       39 1
     109      221       39 1
     110       41       40 1
     111      222       40 1
     112      223       40 1
     113       42       41 1
     114      224       41 1
     115      225       41 1
     116       43       42 1
     117      226       42 1
     118      227       42 1
     119       44       43 1
     120      228       43 1
     121      229       43 1
     122       45       44 1
     123       49       44 1
     124      230       44 1
     125       46       45 1
     126      231       45 1
     127      232       45 1
     128       47       46 1
     129      233       46 1
     130      234       46 1
     131       48       47 1
     132      235       47 1
     133      236       47 1
     134      237       48 1
     135      238       48 1
     136      239       48 1
     137       50       49 1
     138      240       49 1
     139      241       49 1
     140       51       50 1
     141      242       50 1
     142      243       50 1
     143       52       51 1
     144      244       51 1
     145      245       51 1
     146       53       52 1
     147      246       52 1
     148      247       52 1
     149       54       53 1
     150      248       53 1
     151      249       53 1
     152      250       54 1
     153      251       54 1
     154      252       54 1
     155       56       55 1
     156      253       55 1
     157       57       56 1
     158      254       56 1
     159       59       58 1
     160      255       58 1
     161       61       60 1
     162       62       61 1
     163       63       61 1
     164      256       62 1
     165       64       63 1
     166      117       63 1
     167       65       64 1
     168      257       64 1
     169       66       65 1
     170       72       65 1
     171       67       66 1
     172      117       66 1
     173       68       67 1
     174       71       67 1
     175       69       68 1
     176       72       68 1
     177       70       69 1
     178      258       69 1
     179       71       70 1
     180      259       70 1
     181       73       72 1
     182       95       72 1
     183       74       73 1
     184      260       73 1
     185      261       73 1
     186       75       74 1
     187      262       74 1
     188      263       74 1
     189       76       75 1
     190      264       75 1
     191      265       75 1
     192       77       76 1
     193      266       76 1
     194      267       76 1
     195       78       77 1
     196      268       77 1
     197      269       77 1
     198       79       78 1
     199      270       78 1
     200      271       78 1
     201       80       79 1
     202      272       79 1
     203      273       79 1
     204       81       80 1
     205      274       80 1
     206      275       80 1
     207       82       81 1
     208      276       81 1
     209      277       81 1
     210       83       82 1
     211      278       82 1
     212      279       82 1
     213       84       83 1
     214      280       83 1
     215      281       83 1
     216       85       84 1
     217       89       84 1
     218      282       84 1
     219       86       85 1
     220      283       85 1
     221      284       85 1
     222       87       86 1
     223      285       86 1
     224      286       86 1
     225       88       87 1
     226      287       87 1
     227      288       87 1
     228      289       88 1
     229      290       88 1
     230      291       88 1
     231       90       89 1
     232      292       89 1
     233      293       89 1
     234       91       90 1
     235      294       90 1
     236      295       90 1
     237       92       91 1
     238      296       91 1
     239      297       91 1
     240       93       92 1
     241      298       92 1
     242      299       92 1
     243       94       93 1
     244      300       93 1
     245      301       93 1
     246      302       94 1
     247      303       94 1
     248      304       94 1
     249       96       95 1
     250      305       95 1
     251      306       95 1
     252       97       96 1
     253      307       96 1
     254      308       96 1
     255       98       97 1
     256      309       97 1
     257      310       97 1
     258       99       98 1
     259      311       98 1
     260      312       98 1
     261      100       99 1
     262      313       99 1
     263      314       99 1
     264      101      100 1
     265      315      100 1
     266      316      100 1
     267      102      101 1
     268      317      101 1
     269      318      101 1
     270      103      102 1
     271      319      102 1
     272      320      102 1
     273      104      103 1
     274      321      103 1
     275      322      103 1
     276      105      104 1
     277      323      104 1
     278      324      104 1
     279      106      105 1
     280      325      105 1
     281      326      105 1
     282      107      106 1
     283      111      106 1
     284      327      106 1
     285      108      107 1
     286      328      107 1
     287      329      107 1
     288      109      108 1
     289      330      108 1
     290      331      108 1
     291      110      109 1
     292      332      109 1
     293      333      109 1
     294      334      110 1
     295      335      110 1
     296      336      110 1
     297      112      111 1
     298      337      111 1
     299      338      111 1
     300      113      112 1
     301      339      112 1
     302      340      112 1
     303      114      113 1
     304      341      113 1
     305      342      113 1
     306      115      114 1
     307      343      114 1
     308      344      114 1
     309      116      115 1
     310      345      115 1
     311      346      115 1
     312      347      116 1
     313      348      116 1
     314      349      116 1
     315      119      118 1
     316      350      118 1
     317      351      118 1
     318      120      119 1
     319      352      119 1
     320      353      119 1
     321      121      120 1
     322      354      120 1
     323      355      120 1
     324      122      121 1
     325      356      121 1
     326      357      121 1
     327      123      122 1
     328      358      122 1
     329      359      122 1
     330      124      123 1
     331      360      123 1
     332      361      123 1
     333      125      124 1
     334      362      124 1
     335      363      124 1
     336      126      125 1
     337      364      125 1
     338      365      125 1
     339      127      126 1
     340      366      126 1
     341      367      126 1
     342      128      127 1
     343      368      127 1
     344      369      127 1
     345      129      128 1
     346      370      128 1
     347      371      128 1
     348      130      129 1
     349      134      129 1
     350      372      129 1
     351      131      130 1
     352      373      130 1
     353      374      130 1
     354      132      131 1
     355      375      131 1
     356      376      131 1
     357      133      132 1
     358      377      132 1
     359      378      132 1
     360      379      133 1
     361      380      133 1
     362      381      133 1
     363      135      134 1
     364      382      134 1
     365      383      134 1
     366      136      135 1
     367      384      135 1
     368      385      135 1
     369      137      136 1
     370      386      136 1
     371      387      136 1
     372      138      137 1
     373      388      137 1
     374      389      137 1
     375      139      138 1
     376      390      138 1
     377      391      138 1
     378      392      139 1
     379      393      139 1
     380      394      139 1
     381      141      140 1
     382      395      140 1
     383      396      140 1
     384      142      141 1
     385      397      141 1
     386      398      141 1
     387      143      142 1
     388      399      142 1
     389      400      142 1
     390      144      143 1
     391      401      143 1
     392      402      143 1
     393      145      144 1
     394      403      144 1
     395      404      144 1
     396      146      145 1
     397      405      145 1
     398      406      145 1
     399      147      146 1
     400      407      146 1
     401      408      146 1
     402      148      147 1
     403      409      147 1
     404      410      147 1
     405      149      148 1
     406      411      148 1
     407      412      148 1
     408      150      149 1
     409      413      149 1
     410      414      149 1
     411      151      150 1
     412      415      150 1
     413      416      150 1
     414      152      151 1
     415      156      151 1
     416      417      151 1
     417      153      152 1
     418      418      152 1
     419      419      152 1
     420      154      153 1
     421      420      153 1
     422      421      153 1
     423      155      154 1
     424      422      154 1
     425      423      154 1
     426      424      155 1
     427      425      155 1
     428      426      155 1
     429      157      156 1
     430      427      156 1
     431      428      156 1
     432      158      157 1
     433      429      157 1
     434      430      157 1
     435      159      158 1
     436      431      158 1
     437      432      158 1
     438      160      159 1
     439      433      159 1
     440      434      159 1
     441      161      160 1
     442      435      160 1
     443      436      160 1
     444      437      161 1
     445      438      161 1
     446      439      161 1
@<TRIPOS>SUBSTRUCTURE
       1 Compound        1 RESIDUE    0 **** ROOT      0
