@<TRIPOS>MOLECULE
Compound
604 617 1 0 1
SMALL
NO_CHARGES
@<TRIPOS>CRYSIN
   72.3593    71.2691    10.4825    90.0000    90.0000    90.0000  1  1
@<TRIPOS>ATOM
       1 C0          -5.7103     3.8463     0.0761 C0            1 Compound
       2 C1          -5.5561     5.2401     0.4591 C1            1 Compound
       3 C1          -4.2206     5.5900     0.6218 C1            1 Compound
       4 C1          -3.3612     4.6001     0.4304 C1            1 Compound
       5 C1          -1.9008     4.5983     0.5351 C1            1 Compound
       6 C1          -1.1402     3.4128     0.2126 C1            1 Compound
       7 C1          -1.9486     2.3681    -0.2862 C1            1 Compound
       8 C1          -3.3928     2.3443    -0.3563 C1            1 Compound
       9 C1          -4.1377     3.5134    -0.0274 C1            1 Compound
      10 C1          -1.1389     1.4277    -0.6602 C1            1 Compound
      11 C1           0.1997     1.7625    -0.5895 C1            1 Compound
      12 C1           0.9551     0.5549    -0.7553 C1            1 Compound
      13 C1           0.1776    -0.5779    -1.0329 C1            1 Compound
      14 S2          -1.4516    -0.1623    -1.1009 S2            1 Compound
      15 C0           0.4461     3.0731    -0.0784 C0            1 Compound
      16 C0           2.0521     2.7472     0.6058 C0            1 Compound
      17 C0           3.6644     2.4750    -0.0069 C0            1 Compound
      18 C0           5.0607     2.3035     0.8098 C0            1 Compound
      19 C0           6.4226     1.9965    -0.0796 C0            1 Compound
      20 C0           7.9082     2.0297     0.6365 C0            1 Compound
      21 C0           9.2915     1.3968    -0.0405 C0            1 Compound
      22 C0          10.8037     1.9414     0.4288 C0            1 Compound
      23 C0          12.2536     1.4903    -0.3338 C0            1 Compound
      24 C0          13.9258     1.4979     0.0246 C0            1 Compound
      25 C0          15.3706     0.6525     0.3389 C0            1 Compound
      26 C0          16.9027     1.1999    -0.0171 C0            1 Compound
      27 C0          18.2723     0.2946     0.2812 C0            1 Compound
      28 C0          18.2190    -1.0455    -0.5263 C0            1 Compound
      29 C0          17.9869    -2.2982     0.3463 C0            1 Compound
      30 C0          17.8968    -3.5717    -0.5206 C0            1 Compound
      31 C0          17.6837    -4.8396     0.3113 C0            1 Compound
      32 C0          19.7278     1.0080    -0.0119 C0            1 Compound
      33 C0          21.1399     0.3312     0.4624 C0            1 Compound
      34 C0          22.4654     0.4812    -0.4423 C0            1 Compound
      35 C0          23.8426     0.1248     0.2783 C0            1 Compound
      36 C0          25.1299     0.1412    -0.6271 C0            1 Compound
      37 C0          26.4563    -0.0915     0.1463 C0            1 Compound
      38 C0           0.8089     4.5695    -0.7388 C0            1 Compound
      39 C0           1.2839     6.0296    -0.0070 C0            1 Compound
      40 C0           1.2372     7.4605    -0.7159 C0            1 Compound
      41 C0           1.8350     8.6991     0.1721 C0            1 Compound
      42 C0           1.6055    10.2470    -0.3075 C0            1 Compound
      43 C0           2.5523    11.4833     0.2830 C0            1 Compound
      44 C0           2.1026    13.0906     0.2160 C0            1 Compound
      45 C0           2.8502    14.4393     0.9480 C0            1 Compound
      46 C0           3.5477    15.8577     1.6312 C0            1 Compound
      47 C0           3.2200    17.5441     1.7554 C0            1 Compound
      48 C0           3.9303    18.7616     0.8210 C0            1 Compound
      49 C0           3.7325    20.3515     0.2912 C0            1 Compound
      50 C0           2.3584    20.6524    -0.3888 C0            1 Compound
      51 C0           1.1253    20.9113     0.5073 C0            1 Compound
      52 C0          -0.0776    21.2653    -0.4060 C0            1 Compound
      53 C0          -1.3963    21.5021     0.3310 C0            1 Compound
      54 C0           4.3335    21.7012     0.9770 C0            1 Compound
      55 C0           4.5069    23.0106     0.0127 C0            1 Compound
      56 C0           5.0425    24.3555     0.6765 C0            1 Compound
      57 C0           5.2241    25.6405    -0.2464 C0            1 Compound
      58 C0           5.5844    26.9172     0.5924 C0            1 Compound
      59 C0           5.8125    28.2309    -0.1957 C0            1 Compound
      60 S2          -3.9902     7.2614     0.8151 S2            1 Compound
      61 C1          -5.5969     7.7692     0.4975 C1            1 Compound
      62 C1          -6.3438     6.5104     0.3745 C1            1 Compound
      63 C1          -6.0349     9.2942     0.2168 C1            1 Compound
      64 C1          -7.3793     9.7207    -0.0019 C1            1 Compound
      65 C1          -7.7670    11.0958    -0.3096 C1            1 Compound
      66 F3          -9.0944    11.3325    -0.4553 F3            1 Compound
      67 C1          -6.8334    12.1958    -0.4487 C1            1 Compound
      68 C1          -5.4931    11.7768    -0.2200 C1            1 Compound
      69 C1          -5.1048    10.3840     0.1012 C1            1 Compound
      70 N4          -3.7698    10.2042     0.2686 N4            1 Compound
      71 S2          -3.1475    11.7148     0.0356 S2            1 Compound
      72 N4          -4.4621    12.6545    -0.2845 N4            1 Compound
      73 C1          -7.2641    13.7277    -0.7376 C1            1 Compound
      74 S2          -8.8809    14.2542    -0.9059 S2            1 Compound
      75 C1          -8.6071    15.9197    -0.6919 C1            1 Compound
      76 C1          -9.4517    16.8846    -0.3827 C1            1 Compound
      77 C1         -10.9322    16.8499    -0.4225 C1            1 Compound
      78 C1         -11.7176    18.0159    -0.0968 C1            1 Compound
      79 C1         -10.8918    19.0963     0.3453 C1            1 Compound
      80 C1         -11.6887    20.1010     0.6188 C1            1 Compound
      81 C1         -13.0230    19.8079     0.5263 C1            1 Compound
      82 C0         -13.2974    18.4471     0.0812 C0            1 Compound
      83 C0         -14.8004    18.7615    -0.7725 C0            1 Compound
      84 C0         -16.4905    18.9804    -0.3126 C0            1 Compound
      85 C0         -17.9529    19.1086    -1.0791 C0            1 Compound
      86 C0         -19.2174    19.4423    -0.0380 C0            1 Compound
      87 C0         -20.8868    19.3469     0.1776 C0            1 Compound
      88 C0         -22.2581    19.8205    -0.6010 C0            1 Compound
      89 C0         -23.6880    19.8176     0.2494 C0            1 Compound
      90 C0         -25.1396    20.1069    -0.4829 C0            1 Compound
      91 C0         -26.5579    20.1550     0.3630 C0            1 Compound
      92 C0         -27.9682    20.4940    -0.4191 C0            1 Compound
      93 C0         -29.4031    20.5055     0.3799 C0            1 Compound
      94 C0         -30.8139    20.9405    -0.3611 C0            1 Compound
      95 C0         -30.7583    22.4067    -0.8812 C0            1 Compound
      96 C0         -30.6653    23.5517     0.1627 C0            1 Compound
      97 C0         -30.5897    24.9024    -0.5864 C0            1 Compound
      98 C0         -30.4579    26.1263     0.3215 C0            1 Compound
      99 C0         -32.1528    20.7044     0.5269 C0            1 Compound
     100 C0         -33.7040    21.1182     0.0669 C0            1 Compound
     101 C0         -35.2997    20.9401     0.4668 C0            1 Compound
     102 C0         -36.5317    21.2739    -0.4805 C0            1 Compound
     103 C0         -37.8714    21.2641     0.3635 C0            1 Compound
     104 C0         -39.2026    21.5375    -0.3708 C0            1 Compound
     105 C0         -13.8108    17.0487     0.8331 C0            1 Compound
     106 C0         -13.6105    15.4154     1.1627 C0            1 Compound
     107 C0         -13.9111    14.2011     0.0642 C0            1 Compound
     108 C0         -14.5954    12.6839     0.4016 C0            1 Compound
     109 C0         -14.5662    11.0312     0.0151 C0            1 Compound
     110 C0         -15.1979     9.8720     1.0072 C0            1 Compound
     111 C0         -15.2487     8.2668     0.5802 C0            1 Compound
     112 C0         -16.0449     7.1683     1.5611 C0            1 Compound
     113 C0         -16.0875     5.4680     1.8226 C0            1 Compound
     114 C0         -16.3225     3.8889     1.1782 C0            1 Compound
     115 C0         -16.2152     2.4072     0.3658 C0            1 Compound
     116 C0         -17.2518     1.1802    -0.0466 C0            1 Compound
     117 C0         -18.7814     1.6435     0.0223 C0            1 Compound
     118 C0         -20.2819     1.2520    -0.3583 C0            1 Compound
     119 C0         -21.4594     1.6870     0.5647 C0            1 Compound
     120 C0         -22.6945     2.1339    -0.2527 C0            1 Compound
     121 C0         -17.0612    -0.3149     0.5822 C0            1 Compound
     122 C0         -17.6428    -1.5837    -0.2408 C0            1 Compound
     123 C0         -17.5973    -2.9998     0.4925 C0            1 Compound
     124 C0         -18.0779    -4.2679    -0.3328 C0            1 Compound
     125 C0         -18.1880    -5.5675     0.5387 C0            1 Compound
     126 C0         -18.5898    -6.8511    -0.2282 C0            1 Compound
     127 C1         -13.7712    21.0654     0.5745 C1            1 Compound
     128 C1         -12.9903    22.2595     0.7053 C1            1 Compound
     129 S2         -11.3776    21.7448     0.8847 S2            1 Compound
     130 C1         -13.4576    23.7264     0.5177 C1            1 Compound
     131 C1         -14.8398    24.0795     0.3820 C1            1 Compound
     132 F3         -15.8198    23.1534     0.4584 F3            1 Compound
     133 C1         -15.2607    25.4110     0.1564 C1            1 Compound
     134 C1         -14.3481    26.4546     0.0450 C1            1 Compound
     135 C1         -12.9991    26.1661     0.1567 C1            1 Compound
     136 N4         -12.0444    27.1230     0.0374 N4            1 Compound
     137 S2         -10.6573    26.2532     0.2214 S2            1 Compound
     138 N4         -11.1876    24.7007     0.4525 N4            1 Compound
     139 C1         -12.5402    24.8218     0.3916 C1            1 Compound
     140 C1          -9.4375    19.1227     0.4115 C1            1 Compound
     141 C1          -8.6398    17.9646     0.0664 C1            1 Compound
     142 C0          -7.0323    17.6425    -0.1788 C0            1 Compound
     143 C1          -7.2556    16.2700    -0.6694 C1            1 Compound
     144 C1          -6.4861    14.9805    -0.7100 C1            1 Compound
     145 C0          -6.6303    19.2381    -0.6772 C0            1 Compound
     146 C0          -6.2566    20.7318    -1.3054 C0            1 Compound
     147 C0          -6.1764    22.0480    -0.2753 C0            1 Compound
     148 C0          -5.7827    23.5492    -0.8330 C0            1 Compound
     149 C0          -5.7296    24.9067     0.1098 C0            1 Compound
     150 C0          -5.2727    26.3233    -0.6075 C0            1 Compound
     151 C0          -5.1881    27.7658     0.1901 C0            1 Compound
     152 C0          -4.6622    29.1442    -0.5730 C0            1 Compound
     153 C0          -4.7910    30.5755     0.2325 C0            1 Compound
     154 C0          -4.1882    32.1352    -0.1872 C0            1 Compound
     155 C0          -4.0692    33.7289     0.4454 C0            1 Compound
     156 C0          -3.1318    35.1232     0.3989 C0            1 Compound
     157 C0          -1.5809    34.8371     0.4198 C0            1 Compound
     158 C0          -0.3507    34.1421    -0.2737 C0            1 Compound
     159 C0           0.8508    33.8398     0.6556 C0            1 Compound
     160 C0           2.1747    33.9059    -0.1328 C0            1 Compound
     161 C0          -3.4620    36.5435    -0.3994 C0            1 Compound
     162 C0          -3.0427    37.9657     0.3084 C0            1 Compound
     163 C0          -2.6349    39.1406    -0.7000 C0            1 Compound
     164 C0          -2.6562    40.7459    -0.5558 C0            1 Compound
     165 C0          -2.0179    41.6632     0.5460 C0            1 Compound
     166 C0          -1.8764    43.1360     0.0351 C0            1 Compound
     167 C0          -5.5432    17.3160     0.6096 C0            1 Compound
     168 C0          -3.8926    17.6872     0.7556 C0            1 Compound
     169 C0          -2.6475    17.0122    -0.1608 C0            1 Compound
     170 C0          -1.0536    17.2065     0.2776 C0            1 Compound
     171 C0           0.2893    16.3765    -0.3215 C0            1 Compound
     172 C0           1.6299    17.1207    -0.9882 C0            1 Compound
     173 C0           3.1613    16.6221    -1.6375 C0            1 Compound
     174 C0           4.7598    16.0203    -1.3415 C0            1 Compound
     175 C0           6.1522    16.7095    -0.6897 C0            1 Compound
     176 C0           7.5171    15.9082    -0.1416 C0            1 Compound
     177 C0           9.0117    15.3853    -0.6451 C0            1 Compound
     178 C0          10.5271    16.0864    -0.7512 C0            1 Compound
     179 C0          10.6062    17.5513    -0.2147 C0            1 Compound
     180 C0          10.6709    18.9901     0.3620 C0            1 Compound
     181 C0          10.9805    20.1076    -0.6400 C0            1 Compound
     182 C0          11.1084    21.4514     0.0838 C0            1 Compound
     183 C0          11.7620    15.2383    -0.0604 C0            1 Compound
     184 C0          13.2719    15.5548    -0.5075 C0            1 Compound
     185 C0          14.3695    14.8490     0.3359 C0            1 Compound
     186 C0          15.9194    15.0941    -0.1031 C0            1 Compound
     187 C0          17.5540    14.8950    -0.0068 C0            1 Compound
     188 C0          19.0729    14.7794    -0.3256 C0            1 Compound
     189 C0          -7.0602     3.9915    -0.8972 C0            1 Compound
     190 C0          -8.5528     4.1296    -0.1395 C0            1 Compound
     191 C0          -9.8914     4.6213    -0.9506 C0            1 Compound
     192 C0         -11.4348     4.6611    -0.3282 C0            1 Compound
     193 C0         -12.6143     5.2462    -1.3563 C0            1 Compound
     194 C0         -14.2499     4.8668    -1.5837 C0            1 Compound
     195 C0         -15.6850     5.7444    -1.4231 C0            1 Compound
     196 C0         -17.2669     5.1677    -1.6352 C0            1 Compound
     197 C0         -18.7601     5.6779    -0.9562 C0            1 Compound
     198 C0         -20.1269     6.2380    -0.0784 C0            1 Compound
     199 C0         -21.7930     5.8985     0.0246 C0            1 Compound
     200 C0         -23.2103     6.5468    -0.5852 C0            1 Compound
     201 C0         -23.4968     7.9901    -0.0682 C0            1 Compound
     202 C0         -22.6549     9.1870    -0.5568 C0            1 Compound
     203 C0         -22.7835    10.3479     0.4655 C0            1 Compound
     204 C0         -22.5875    11.7366    -0.1391 C0            1 Compound
     205 C0         -24.6674     5.6944    -0.4369 C0            1 Compound
     206 C0         -26.1051     6.2148     0.2518 C0            1 Compound
     207 C0         -27.5385     5.7830    -0.3949 C0            1 Compound
     208 C0         -28.9206     6.6488    -0.3510 C0            1 Compound
     209 C0         -30.0935     6.5050     0.7050 C0            1 Compound
     210 C0         -31.5026     6.8207     0.0842 C0            1 Compound
     211 C0          -6.1518     2.4624     0.8750 C0            1 Compound
     212 C0          -6.5609     0.8160     0.6882 C0            1 Compound
     213 C0          -6.4155    -0.8431     0.9335 C0            1 Compound
     214 C0          -6.8701    -2.0584    -0.0866 C0            1 Compound
     215 C0          -6.9624    -3.5796     0.5711 C0            1 Compound
     216 C0          -7.4715    -4.9268    -0.2407 C0            1 Compound
     217 C0          -7.5507    -6.4185     0.4994 C0            1 Compound
     218 C0          -8.1181    -7.6928    -0.3881 C0            1 Compound
     219 C0          -7.9919    -9.3686    -0.3046 C0            1 Compound
     220 C0          -8.8666   -10.5927     0.3878 C0            1 Compound
     221 C0          -8.6407   -12.1191    -0.2409 C0            1 Compound
     222 C0          -9.6386   -13.4552    -0.0127 C0            1 Compound
     223 C0         -10.9915   -13.2090     0.7166 C0            1 Compound
     224 C0         -12.2197   -13.0143    -0.2219 C0            1 Compound
     225 C0         -13.4867   -12.7492     0.5958 C0            1 Compound
     226 C0         -14.7160   -12.5059    -0.2789 C0            1 Compound
     227 C0          -9.3255   -15.0506    -0.3827 C0            1 Compound
     228 C0          -9.9042   -16.3164     0.4599 C0            1 Compound
     229 C0          -9.8918   -17.7320    -0.3021 C0            1 Compound
     230 C0         -10.3970   -19.0283     0.4713 C0            1 Compound
     231 C0         -10.5113   -20.2990    -0.4495 C0            1 Compound
     232 C0         -10.9320   -21.6113     0.2606 C0            1 Compound
     233 H5          -1.3945     5.5055     0.8155 H5            1 Compound
     234 H5          -3.9033     1.4545    -0.7023 H5            1 Compound
     235 H5           2.0033     0.4144    -0.6001 H5            1 Compound
     236 H6           0.5549    -1.5929    -1.1191 H6            1 Compound
     237 H7           2.2915     3.5706     1.3106 H7            1 Compound
     238 H7           2.1949     2.7802    -0.4634 H7            1 Compound
     239 H7           4.0013     3.3526    -0.6551 H7            1 Compound
     240 H7           3.7220     1.5603    -0.6642 H7            1 Compound
     241 H7           4.9492     1.4670     1.5283 H7            1 Compound
     242 H7           5.2141     3.2429     1.3781 H7            1 Compound
     243 H7           6.4601     2.7404    -0.9117 H7            1 Compound
     244 H7           6.2683     1.0084    -0.5616 H7            1 Compound
     245 H7           7.7930     1.5346     1.6205 H7            1 Compound
     246 H7           8.0905     3.1054     0.8310 H7            1 Compound
     247 H7           9.2549     0.3023     0.1803 H7            1 Compound
     248 H7           9.1980     1.4766    -1.1428 H7            1 Compound
     249 H7          10.7034     3.0466     0.3097 H7            1 Compound
     250 H7          10.8850     1.7542     1.5143 H7            1 Compound
     251 H7          12.0241     0.5652    -0.8899 H7            1 Compound
     252 H7          12.2849     2.3573    -1.0271 H7            1 Compound
     253 H7          14.2476     2.5500     0.0506 H7            1 Compound
     254 H7          13.5493     1.1310     0.9859 H7            1 Compound
     255 H7          15.2800    -0.3826    -0.0468 H7            1 Compound
     256 H7          15.4567     0.5669     1.4505 H7            1 Compound
     257 H7          16.9416     1.4808    -1.0891 H7            1 Compound
     258 H7          17.0390     2.1420     0.5605 H7            1 Compound
     259 H7          18.2887     0.0629     1.3684 H7            1 Compound
     260 H7          19.1738    -1.2084    -1.0770 H7            1 Compound
     261 H7          17.4335    -0.9747    -1.3091 H7            1 Compound
     262 H7          17.0468    -2.1808     0.9240 H7            1 Compound
     263 H7          18.8368    -2.4037     1.0575 H7            1 Compound
     264 H7          18.8338    -3.6959    -1.1064 H7            1 Compound
     265 H7          17.0458    -3.4738    -1.2285 H7            1 Compound
     266 H7          16.7388    -4.7778     0.8915 H7            1 Compound
     267 H7          18.5325    -5.0036     1.0087 H7            1 Compound
     268 H7          17.6177    -5.7192    -0.3666 H7            1 Compound
     269 H7          19.7162     1.9946     0.5014 H7            1 Compound
     270 H7          19.7992     1.2360    -1.0935 H7            1 Compound
     271 H7          21.3908     0.7861     1.4463 H7            1 Compound
     272 H7          21.0161    -0.7547     0.6502 H7            1 Compound
     273 H7          22.3602    -0.1818    -1.3310 H7            1 Compound
     274 H7          22.5723     1.5224    -0.8109 H7            1 Compound
     275 H7          24.0077     0.8654     1.0899 H7            1 Compound
     276 H7          23.7884    -0.8858     0.7349 H7            1 Compound
     277 H7          25.0594    -0.6569    -1.3981 H7            1 Compound
     278 H7          25.2351     1.1178    -1.1455 H7            1 Compound
     279 H7          26.6490     0.7194     0.8821 H7            1 Compound
     280 H7          26.4665    -1.0659     0.6800 H7            1 Compound
     281 H7          27.3249    -0.0976    -0.5563 H7            1 Compound
     282 H7           0.8411     4.5696     0.3263 H7            1 Compound
     283 H7           1.6164     4.4305    -1.4938 H7            1 Compound
     284 H7           0.6910     6.3376     0.9267 H7            1 Compound
     285 H7           2.3529     5.9062     0.3355 H7            1 Compound
     286 H7           0.1666     7.6485    -0.9401 H7            1 Compound
     287 H7           1.7994     7.4011    -1.6683 H7            1 Compound
     288 H7           2.9195     8.4986     0.2793 H7            1 Compound
     289 H7           1.4004     8.6220     1.1984 H7            1 Compound
     290 H7           0.5316    10.4486    -0.0951 H7            1 Compound
     291 H7           1.7077    10.2485    -1.4116 H7            1 Compound
     292 H7           2.8933    11.2200     1.3001 H7            1 Compound
     293 H7           3.4681    11.4122    -0.3462 H7            1 Compound
     294 H7           2.1132    13.2557    -0.8874 H7            1 Compound
     295 H7           1.0286    13.1577     0.4936 H7            1 Compound
     296 H7           3.8221    13.9071     0.9032 H7            1 Compound
     297 H7           2.6250    15.0200     0.0705 H7            1 Compound
     298 H7           3.6598    15.5376     2.6896 H7            1 Compound
     299 H7           4.5989    15.8318     1.3385 H7            1 Compound
     300 H7           3.6101    17.8269     2.7602 H7            1 Compound
     301 H7           2.1289    17.6873     1.8736 H7            1 Compound
     302 H7           4.9928    18.7680     1.1294 H7            1 Compound
     303 H7           3.9237    18.2940    -0.1462 H7            1 Compound
     304 H7           4.4294    20.3263    -0.5809 H7            1 Compound
     305 H7           2.4761    21.5463    -1.0308 H7            1 Compound
     306 H7           2.1289    19.8491    -1.1074 H7            1 Compound
     307 H7           1.3168    21.7639     1.1966 H7            1 Compound
     308 H7           0.8999    20.0070     1.1095 H7            1 Compound
     309 H7           0.1595    22.1900    -0.9786 H7            1 Compound
     310 H7          -0.2419    20.4388    -1.1301 H7            1 Compound
     311 H7          -1.3150    22.3532     1.0384 H7            1 Compound
     312 H7          -1.7139    20.5895     0.8755 H7            1 Compound
     313 H7          -2.1857    21.7485    -0.4159 H7            1 Compound
     314 H7           3.7156    21.9840     1.8507 H7            1 Compound
     315 H7           5.3590    21.4710     1.3379 H7            1 Compound
     316 H7           5.1933    22.7530    -0.8258 H7            1 Compound
     317 H7           3.5333    23.2934    -0.4326 H7            1 Compound
     318 H7           4.3170    24.6366     1.4658 H7            1 Compound
     319 H7           6.0274    24.1632     1.1501 H7            1 Compound
     320 H7           6.0292    25.4707    -0.9970 H7            1 Compound
     321 H7           4.2858    25.8638    -0.8003 H7            1 Compound
     322 H7           4.7553    27.1177     1.3039 H7            1 Compound
     323 H7           6.5109    26.7309     1.1743 H7            1 Compound
     324 H7           6.6878    28.1658    -0.8765 H7            1 Compound
     325 H7           4.9177    28.5378    -0.7779 H7            1 Compound
     326 H7           6.0271    29.0597     0.5230 H7            1 Compound
     327 H5          -7.3800     6.5558     0.0929 H5            1 Compound
     328 H5          -8.1599     8.9732     0.0731 H5            1 Compound
     329 H5         -11.4417    15.9533    -0.7332 H5            1 Compound
     330 H7         -15.0157    19.0057     0.2498 H7            1 Compound
     331 H7         -14.6059    19.6042    -1.4783 H7            1 Compound
     332 H7         -16.7532    18.1134     0.3625 H7            1 Compound
     333 H7         -16.6438    19.9495     0.2771 H7            1 Compound
     334 H7         -17.9072    19.9407    -1.8205 H7            1 Compound
     335 H7         -18.1315    18.1668    -1.6319 H7            1 Compound
     336 H7         -18.9233    18.7927     0.8135 H7            1 Compound
     337 H7         -18.9774    20.4780     0.2847 H7            1 Compound
     338 H7         -20.9939    19.8832     1.1494 H7            1 Compound
     339 H7         -21.0911    18.2826     0.4158 H7            1 Compound
     340 H7         -22.3756    19.1348    -1.4655 H7            1 Compound
     341 H7         -22.1188    20.8484    -0.9923 H7            1 Compound
     342 H7         -23.7781    18.8329     0.7541 H7            1 Compound
     343 H7         -23.5764    20.5805     1.0516 H7            1 Compound
     344 H7         -25.0500    21.0809    -1.0032 H7            1 Compound
     345 H7         -25.2641    19.3178    -1.2532 H7            1 Compound
     346 H7         -26.6825    19.1737     0.8695 H7            1 Compound
     347 H7         -26.4467    20.9222     1.1590 H7            1 Compound
     348 H7         -27.8388    21.4954    -0.8734 H7            1 Compound
     349 H7         -28.0781    19.7569    -1.2419 H7            1 Compound
     350 H7         -29.5559    19.4732     0.7626 H7            1 Compound
     351 H7         -29.2923    21.1590     1.2695 H7            1 Compound
     352 H7         -30.9245    20.2954    -1.2592 H7            1 Compound
     353 H7         -31.6686    22.5877    -1.4936 H7            1 Compound
     354 H7         -29.8862    22.4873    -1.5610 H7            1 Compound
     355 H7         -29.7564    23.4301     0.7888 H7            1 Compound
     356 H7         -31.5579    23.5509     0.8275 H7            1 Compound
     357 H7         -31.5058    25.0304    -1.2033 H7            1 Compound
     358 H7         -29.7070    24.8901    -1.2612 H7            1 Compound
     359 H7         -29.5294    26.0733     0.9277 H7            1 Compound
     360 H7         -31.3374    26.2275     0.9907 H7            1 Compound
     361 H7         -30.4010    27.0384    -0.3150 H7            1 Compound
     362 H7         -31.8509    21.2432     1.4711 H7            1 Compound
     363 H7         -32.1710    19.6132     0.7617 H7            1 Compound
     364 H7         -33.7409    21.0319     1.1622 H7            1 Compound
     365 H7         -33.6461    22.1828    -0.2329 H7            1 Compound
     366 H7         -35.5598    21.6285     1.3283 H7            1 Compound
     367 H7         -35.4897    19.8882     0.7956 H7            1 Compound
     368 H7         -36.6131    20.5374    -1.3098 H7            1 Compound
     369 H7         -36.4352    22.2906    -0.9191 H7            1 Compound
     370 H7         -37.7987    22.0497     1.1485 H7            1 Compound
     371 H7         -37.9891    20.2842     0.8730 H7            1 Compound
     372 H7         -39.4465    20.7391    -1.1014 H7            1 Compound
     373 H7         -39.2127    22.5262    -0.8749 H7            1 Compound
     374 H7         -40.0343    21.5516     0.3779 H7            1 Compound
     375 H7         -14.7515    17.2892     1.3670 H7            1 Compound
     376 H7         -14.1553    16.6746    -0.1380 H7            1 Compound
     377 H7         -14.4024    15.2326     1.9235 H7            1 Compound
     378 H7         -12.6624    15.2315     1.7043 H7            1 Compound
     379 H7         -14.6305    14.7099    -0.6324 H7            1 Compound
     380 H7         -12.9837    14.0720    -0.5356 H7            1 Compound
     381 H7         -14.8779    12.7599    -0.6678 H7            1 Compound
     382 H7         -15.5639    12.8833     0.8982 H7            1 Compound
     383 H7         -15.1618    10.8306    -0.9216 H7            1 Compound
     384 H7         -13.5240    10.7583    -0.2512 H7            1 Compound
     385 H7         -14.6416     9.9311     1.9614 H7            1 Compound
     386 H7         -16.2487    10.1753     1.1952 H7            1 Compound
     387 H7         -14.2000     7.9370     0.4316 H7            1 Compound
     388 H7         -15.7494     8.2449    -0.4120 H7            1 Compound
     389 H7         -15.7315     7.5255     2.5635 H7            1 Compound
     390 H7         -17.1065     7.4718     1.4490 H7            1 Compound
     391 H7         -15.1584     5.3458     2.4311 H7            1 Compound
     392 H7         -16.9116     5.4713     2.5667 H7            1 Compound
     393 H7         -16.5319     3.3867     2.1470 H7            1 Compound
     394 H7         -15.2399     3.9525     0.9480 H7            1 Compound
     395 H7         -15.3078     1.8606     0.7205 H7            1 Compound
     396 H7         -15.8990     2.7008    -0.6469 H7            1 Compound
     397 H7         -16.8255     0.9509    -1.0861 H7            1 Compound
     398 H7         -18.7184     1.0234    -0.8914 H7            1 Compound
     399 H7         -18.8621     1.5208     1.1197 H7            1 Compound
     400 H7         -20.4320     0.1366    -0.4131 H7            1 Compound
     401 H7         -20.4933     1.7575    -1.3395 H7            1 Compound
     402 H7         -21.7900     0.8203     1.1906 H7            1 Compound
     403 H7         -21.1666     2.5079     1.2459 H7            1 Compound
     404 H7         -23.1072     1.3228    -0.8880 H7            1 Compound
     405 H7         -22.4339     2.9635    -0.9397 H7            1 Compound
     406 H7         -23.4960     2.4896     0.4291 H7            1 Compound
     407 H7         -17.4908    -0.3206     1.6023 H7            1 Compound
     408 H7         -15.9730    -0.5212     0.6737 H7            1 Compound
     409 H7         -17.0754    -1.6771    -1.1943 H7            1 Compound
     410 H7         -18.7043    -1.4140    -0.5043 H7            1 Compound
     411 H7         -18.2479    -2.9273     1.3884 H7            1 Compound
     412 H7         -16.5619    -3.2164     0.8319 H7            1 Compound
     413 H7         -17.3663    -4.4639    -1.1656 H7            1 Compound
     414 H7         -19.0819    -4.0869    -0.7728 H7            1 Compound
     415 H7         -18.9565    -5.4087     1.3257 H7            1 Compound
     416 H7         -17.2180    -5.7817     1.0350 H7            1 Compound
     417 H7         -17.8213    -7.1416    -0.9762 H7            1 Compound
     418 H7         -19.5711    -6.7464    -0.7380 H7            1 Compound
     419 H7         -18.6838    -7.7049     0.4860 H7            1 Compound
     420 H5         -14.8176    21.1397     0.3791 H5            1 Compound
     421 H5         -16.3160    25.6403     0.0575 H5            1 Compound
     422 H5         -14.6894    27.4721    -0.1357 H5            1 Compound
     423 H5          -8.9920    20.0583     0.7141 H5            1 Compound
     424 H5          -5.4235    14.9330    -0.5493 H5            1 Compound
     425 H7          -5.6018    19.3280    -0.3143 H7            1 Compound
     426 H7          -7.0294    19.7144     0.2285 H7            1 Compound
     427 H7          -5.3198    20.6813    -1.9080 H7            1 Compound
     428 H7          -7.0731    20.9831    -2.0139 H7            1 Compound
     429 H7          -5.4591    21.8035     0.5364 H7            1 Compound
     430 H7          -7.1784    22.1372     0.2046 H7            1 Compound
     431 H7          -6.4981    23.7771    -1.6474 H7            1 Compound
     432 H7          -4.7707    23.4471    -1.2697 H7            1 Compound
     433 H7          -5.0313    24.7145     0.9546 H7            1 Compound
     434 H7          -6.7376    25.0567     0.5589 H7            1 Compound
     435 H7          -5.9807    26.4799    -1.4462 H7            1 Compound
     436 H7          -4.2679    26.1360    -1.0334 H7            1 Compound
     437 H7          -6.2070    27.9695     0.5826 H7            1 Compound
     438 H7          -4.5248    27.6223     1.0707 H7            1 Compound
     439 H7          -3.6032    28.9808    -0.8583 H7            1 Compound
     440 H7          -5.2520    29.2491    -1.5092 H7            1 Compound
     441 H7          -5.9152    30.5645     0.3742 H7            1 Compound
     442 H7          -4.3357    30.3469     1.2273 H7            1 Compound
     443 H7          -3.1132    31.8728    -0.0976 H7            1 Compound
     444 H7          -4.9886    32.2422     0.5574 H7            1 Compound
     445 H7          -5.0912    34.2048     0.4023 H7            1 Compound
     446 H7          -3.8252    33.4926     1.5205 H7            1 Compound
     447 H7          -3.3823    35.5211     1.4106 H7            1 Compound
     448 H7          -1.1388    35.7796     0.8169 H7            1 Compound
     449 H7          -1.8251    34.9306    -0.6481 H7            1 Compound
     450 H7          -0.6394    33.1806    -0.7636 H7            1 Compound
     451 H7           0.0743    34.8252    -1.0671 H7            1 Compound
     452 H7           0.9413    34.5842     1.4747 H7            1 Compound
     453 H7           0.7226    32.8312     1.1080 H7            1 Compound
     454 H7           2.1476    33.2610    -1.0363 H7            1 Compound
     455 H7           2.3545    34.9562    -0.4624 H7            1 Compound
     456 H7           3.0362    33.6081     0.5002 H7            1 Compound
     457 H7          -2.9864    36.5113    -1.4045 H7            1 Compound
     458 H7          -4.5486    36.6326    -0.6110 H7            1 Compound
     459 H7          -3.8878    38.2764     0.9607 H7            1 Compound
     460 H7          -2.1657    37.8399     0.9780 H7            1 Compound
     461 H7          -1.6050    38.8814    -1.0246 H7            1 Compound
     462 H7          -3.2944    39.0038    -1.5789 H7            1 Compound
     463 H7          -3.7039    41.1036    -0.6469 H7            1 Compound
     464 H7          -2.1431    41.0705    -1.4909 H7            1 Compound
     465 H7          -1.0001    41.3437     0.8454 H7            1 Compound
     466 H7          -2.6744    41.6809     1.4439 H7            1 Compound
     467 H7          -2.8314    43.5483    -0.3606 H7            1 Compound
     468 H7          -1.1226    43.2003    -0.7836 H7            1 Compound
     469 H7          -1.5268    43.8294     0.8354 H7            1 Compound
     470 H7          -5.1225    17.0925    -0.3998 H7            1 Compound
     471 H7          -5.6423    16.3767     1.1974 H7            1 Compound
     472 H7          -3.6539    17.3821     1.7965 H7            1 Compound
     473 H7          -3.7510    18.7862     0.7390 H7            1 Compound
     474 H7          -2.7524    17.3823    -1.2044 H7            1 Compound
     475 H7          -2.8279    15.9179    -0.1814 H7            1 Compound
     476 H7          -1.1019    16.8792     1.3403 H7            1 Compound
     477 H7          -0.8033    18.2830     0.3475 H7            1 Compound
     478 H7           0.6808    15.8838     0.5900 H7            1 Compound
     479 H7          -0.0611    15.5397    -0.9585 H7            1 Compound
     480 H7           1.8039    17.9215    -0.2797 H7            1 Compound
     481 H7           1.1590    17.6241    -1.8555 H7            1 Compound
     482 H7           3.4312    17.5324    -2.2144 H7            1 Compound
     483 H7           2.8026    15.8845    -2.3834 H7            1 Compound
     484 H7           5.1272    15.7760    -2.3601 H7            1 Compound
     485 H7           4.6571    15.0346    -0.8643 H7            1 Compound
     486 H7           5.8042    17.0736     0.2685 H7            1 Compound
     487 H7           6.4507    17.6336    -1.2227 H7            1 Compound
     488 H7           7.8094    16.4460     0.7905 H7            1 Compound
     489 H7           7.0493    14.9687     0.2322 H7            1 Compound
     490 H7           9.2276    14.6165     0.1297 H7            1 Compound
     491 H7           8.8687    14.7680    -1.5564 H7            1 Compound
     492 H7          10.7329    16.0809    -1.8364 H7            1 Compound
     493 H7          11.6462    17.6731    -0.6100 H7            1 Compound
     494 H7          10.4613    17.1801     0.7903 H7            1 Compound
     495 H7           9.6831    19.2206     0.8502 H7            1 Compound
     496 H7          11.4570    19.0247     1.1562 H7            1 Compound
     497 H7          11.9478    19.9069    -1.1525 H7            1 Compound
     498 H7          10.1772    20.1681    -1.4040 H7            1 Compound
     499 H7          10.1689    21.6951     0.6234 H7            1 Compound
     500 H7          11.9434    21.4147     0.8187 H7            1 Compound
     501 H7          11.3242    22.2603    -0.6448 H7            1 Compound
     502 H7          11.7164    15.3921     1.0446 H7            1 Compound
     503 H7          11.6200    14.1517    -0.2199 H7            1 Compound
     504 H7          13.4086    15.2327    -1.5602 H7            1 Compound
     505 H7          13.5025    16.6380    -0.4472 H7            1 Compound
     506 H7          14.2140    15.2314     1.4124 H7            1 Compound
     507 H7          14.2055    13.7563     0.3456 H7            1 Compound
     508 H7          15.9591    14.5839     0.9101 H7            1 Compound
     509 H7          15.9113    16.2043    -0.0297 H7            1 Compound
     510 H7          17.7738    15.4354     0.8620 H7            1 Compound
     511 H7          17.4475    13.8322    -0.2004 H7            1 Compound
     512 H7          19.4769    14.1986     0.5315 H7            1 Compound
     513 H7          19.5919    15.7841    -0.2464 H7            1 Compound
     514 H7          19.4368    14.2866    -1.2102 H7            1 Compound
     515 H7          -7.1526     3.1381    -1.6024 H7            1 Compound
     516 H7          -6.9231     4.8607    -1.5796 H7            1 Compound
     517 H7          -8.7922     3.1345     0.2878 H7            1 Compound
     518 H7          -8.4499     4.8041     0.7339 H7            1 Compound
     519 H7          -9.6615     5.6479    -1.2955 H7            1 Compound
     520 H7          -9.9500     3.9551    -1.8320 H7            1 Compound
     521 H7         -11.6759     3.6133    -0.0409 H7            1 Compound
     522 H7         -11.4372     5.2442     0.6249 H7            1 Compound
     523 H7         -12.4289     6.3253    -1.5323 H7            1 Compound
     524 H7         -12.2063     4.7385    -2.2473 H7            1 Compound
     525 H7         -14.3260     3.9025    -1.0833 H7            1 Compound
     526 H7         -14.2980     4.6445    -2.6660 H7            1 Compound
     527 H7         -15.6350     6.0028    -0.4180 H7            1 Compound
     528 H7         -15.5952     6.6761    -2.0195 H7            1 Compound
     529 H7         -17.4252     4.9975    -2.7222 H7            1 Compound
     530 H7         -17.1901     4.1547    -1.2498 H7            1 Compound
     531 H7         -19.2354     4.6774    -1.0842 H7            1 Compound
     532 H7         -18.1392     5.8075    -0.0476 H7            1 Compound
     533 H7         -19.9921     7.3233     0.0982 H7            1 Compound
     534 H7         -19.8978     5.7667     0.9130 H7            1 Compound
     535 H7         -21.8564     4.8119    -0.0976 H7            1 Compound
     536 H7         -22.0049     6.0381     1.1139 H7            1 Compound
     537 H7         -23.0344     6.5827    -1.6798 H7            1 Compound
     538 H7         -23.5331     7.9375     1.0408 H7            1 Compound
     539 H7         -24.5006     8.3007    -0.4143 H7            1 Compound
     540 H7         -21.5826     8.9539    -0.6983 H7            1 Compound
     541 H7         -23.0701     9.4913    -1.5474 H7            1 Compound
     542 H7         -23.7938    10.3667     0.9299 H7            1 Compound
     543 H7         -22.0414    10.1716     1.2771 H7            1 Compound
     544 H7         -21.6214    11.8286    -0.6723 H7            1 Compound
     545 H7         -23.4243    11.9509    -0.8399 H7            1 Compound
     546 H7         -22.6295    12.4983     0.6720 H7            1 Compound
     547 H7         -24.9662     5.5968    -1.5026 H7            1 Compound
     548 H7         -24.4748     4.6361    -0.1622 H7            1 Compound
     549 H7         -26.1211     5.9212     1.3225 H7            1 Compound
     550 H7         -26.1641     7.3052     0.1980 H7            1 Compound
     551 H7         -27.3266     5.8272    -1.4824 H7            1 Compound
     552 H7         -27.7968     4.7237    -0.1765 H7            1 Compound
     553 H7         -29.4410     6.2836    -1.2624 H7            1 Compound
     554 H7         -28.7508     7.7321    -0.5490 H7            1 Compound
     555 H7         -29.9498     7.1750     1.5824 H7            1 Compound
     556 H7         -30.1805     5.4603     1.0627 H7            1 Compound
     557 H7         -31.7444     6.1002    -0.7321 H7            1 Compound
     558 H7         -31.5818     7.8446    -0.3426 H7            1 Compound
     559 H7         -32.3289     6.7118     0.8281 H7            1 Compound
     560 H7          -7.0138     2.8322     1.4746 H7            1 Compound
     561 H7          -6.0479     2.0537    -0.1543 H7            1 Compound
     562 H7          -7.6097     0.8428     0.2956 H7            1 Compound
     563 H7          -6.5517     0.8652     1.7961 H7            1 Compound
     564 H7          -7.0729    -1.0807     1.8052 H7            1 Compound
     565 H7          -5.3705    -1.0635     1.2380 H7            1 Compound
     566 H7          -6.1750    -2.0695    -0.9577 H7            1 Compound
     567 H7          -7.8779    -1.8119    -0.4836 H7            1 Compound
     568 H7          -7.6554    -3.4793     1.4295 H7            1 Compound
     569 H7          -5.9528    -3.8064     0.9683 H7            1 Compound
     570 H7          -6.7966    -5.0462    -1.1170 H7            1 Compound
     571 H7          -8.4825    -4.7015    -0.6394 H7            1 Compound
     572 H7          -6.5132    -6.6545     0.8158 H7            1 Compound
     573 H7          -8.1694    -6.3287     1.4175 H7            1 Compound
     574 H7          -9.1788    -7.4640    -0.6216 H7            1 Compound
     575 H7          -7.5491    -7.5064    -1.3226 H7            1 Compound
     576 H7          -6.9186    -9.6097    -0.1596 H7            1 Compound
     577 H7          -8.2192    -9.6091    -1.3644 H7            1 Compound
     578 H7          -9.9356   -10.3422     0.2428 H7            1 Compound
     579 H7          -8.6745   -10.6266     1.4843 H7            1 Compound
     580 H7          -7.6040   -12.4360    -0.0093 H7            1 Compound
     581 H7          -8.6056   -11.9265    -1.3414 H7            1 Compound
     582 H7         -10.0411   -13.2904    -1.0289 H7            1 Compound
     583 H7         -11.2006   -14.0564     1.4002 H7            1 Compound
     584 H7         -10.8866   -12.3154     1.3599 H7            1 Compound
     585 H7         -12.0315   -12.1460    -0.8938 H7            1 Compound
     586 H7         -12.3646   -13.9204    -0.8554 H7            1 Compound
     587 H7         -13.6846   -13.6223     1.2528 H7            1 Compound
     588 H7         -13.3230   -11.8487     1.2245 H7            1 Compound
     589 H7         -14.5653   -11.6226    -0.9357 H7            1 Compound
     590 H7         -14.9415   -13.3954    -0.9046 H7            1 Compound
     591 H7         -15.5898   -12.3073     0.3785 H7            1 Compound
     592 H7          -9.7263   -15.2583    -1.4035 H7            1 Compound
     593 H7          -8.2286   -15.1940    -0.4827 H7            1 Compound
     594 H7          -9.3439   -16.4108     1.4156 H7            1 Compound
     595 H7         -10.9727   -16.1537     0.7036 H7            1 Compound
     596 H7         -10.5508   -17.6268    -1.1908 H7            1 Compound
     597 H7          -8.8668   -17.9586    -0.6624 H7            1 Compound
     598 H7          -9.6951   -19.2650     1.3006 H7            1 Compound
     599 H7         -11.4040   -18.8554     0.9084 H7            1 Compound
     600 H7         -11.2676   -20.1093    -1.2420 H7            1 Compound
     601 H7          -9.5370   -20.5043    -0.9409 H7            1 Compound
     602 H7         -10.1819   -21.9322     1.0147 H7            1 Compound
     603 H7         -11.9256   -21.5273     0.7501 H7            1 Compound
     604 H7         -11.0096   -22.4396    -0.4859 H7            1 Compound
@<TRIPOS>BOND
       1        2        1 1
       2      189        1 1
       3      211        1 1
       4        9        1 1
       5        3        2 1
       6       62        2 1
       7        4        3 1
       8       60        3 1
       9        5        4 1
      10        9        4 1
      11        6        5 1
      12      233        5 1
      13        7        6 1
      14       15        6 1
      15        8        7 1
      16       10        7 1
      17        9        8 1
      18      234        8 1
      19       11       10 1
      20       14       10 1
      21       12       11 1
      22       15       11 1
      23       13       12 1
      24      235       12 1
      25       14       13 1
      26      236       13 1
      27       16       15 1
      28       38       15 1
      29       17       16 1
      30      237       16 1
      31      238       16 1
      32       18       17 1
      33      239       17 1
      34      240       17 1
      35       19       18 1
      36      241       18 1
      37      242       18 1
      38       20       19 1
      39      243       19 1
      40      244       19 1
      41       21       20 1
      42      245       20 1
      43      246       20 1
      44       22       21 1
      45      247       21 1
      46      248       21 1
      47       23       22 1
      48      249       22 1
      49      250       22 1
      50       24       23 1
      51      251       23 1
      52      252       23 1
      53       25       24 1
      54      253       24 1
      55      254       24 1
      56       26       25 1
      57      255       25 1
      58      256       25 1
      59       27       26 1
      60      257       26 1
      61      258       26 1
      62       28       27 1
      63       32       27 1
      64      259       27 1
      65       29       28 1
      66      260       28 1
      67      261       28 1
      68       30       29 1
      69      262       29 1
      70      263       29 1
      71       31       30 1
      72      264       30 1
      73      265       30 1
      74      266       31 1
      75      267       31 1
      76      268       31 1
      77       33       32 1
      78      269       32 1
      79      270       32 1
      80       34       33 1
      81      271       33 1
      82      272       33 1
      83       35       34 1
      84      273       34 1
      85      274       34 1
      86       36       35 1
      87      275       35 1
      88      276       35 1
      89       37       36 1
      90      277       36 1
      91      278       36 1
      92      279       37 1
      93      280       37 1
      94      281       37 1
      95       39       38 1
      96      282       38 1
      97      283       38 1
      98       40       39 1
      99      284       39 1
     100      285       39 1
     101       41       40 1
     102      286       40 1
     103      287       40 1
     104       42       41 1
     105      288       41 1
     106      289       41 1
     107       43       42 1
     108      290       42 1
     109      291       42 1
     110       44       43 1
     111      292       43 1
     112      293       43 1
     113       45       44 1
     114      294       44 1
     115      295       44 1
     116       46       45 1
     117      296       45 1
     118      297       45 1
     119       47       46 1
     120      298       46 1
     121      299       46 1
     122       48       47 1
     123      300       47 1
     124      301       47 1
     125       49       48 1
     126      302       48 1
     127      303       48 1
     128       50       49 1
     129       54       49 1
     130      304       49 1
     131       51       50 1
     132      305       50 1
     133      306       50 1
     134       52       51 1
     135      307       51 1
     136      308       51 1
     137       53       52 1
     138      309       52 1
     139      310       52 1
     140      311       53 1
     141      312       53 1
     142      313       53 1
     143       55       54 1
     144      314       54 1
     145      315       54 1
     146       56       55 1
     147      316       55 1
     148      317       55 1
     149       57       56 1
     150      318       56 1
     151      319       56 1
     152       58       57 1
     153      320       57 1
     154      321       57 1
     155       59       58 1
     156      322       58 1
     157      323       58 1
     158      324       59 1
     159      325       59 1
     160      326       59 1
     161       61       60 1
     162       62       61 1
     163       63       61 1
     164      327       62 1
     165       64       63 1
     166       69       63 1
     167       65       64 1
     168      328       64 1
     169       66       65 1
     170       67       65 1
     171       68       67 1
     172       73       67 1
     173       69       68 1
     174       72       68 1
     175       70       69 1
     176       71       70 1
     177       72       71 1
     178       74       73 1
     179      144       73 1
     180       75       74 1
     181       76       75 1
     182      143       75 1
     183       77       76 1
     184      141       76 1
     185       78       77 1
     186      329       77 1
     187       79       78 1
     188       82       78 1
     189       80       79 1
     190      140       79 1
     191       81       80 1
     192      129       80 1
     193       82       81 1
     194      127       81 1
     195       83       82 1
     196      105       82 1
     197       84       83 1
     198      330       83 1
     199      331       83 1
     200       85       84 1
     201      332       84 1
     202      333       84 1
     203       86       85 1
     204      334       85 1
     205      335       85 1
     206       87       86 1
     207      336       86 1
     208      337       86 1
     209       88       87 1
     210      338       87 1
     211      339       87 1
     212       89       88 1
     213      340       88 1
     214      341       88 1
     215       90       89 1
     216      342       89 1
     217      343       89 1
     218       91       90 1
     219      344       90 1
     220      345       90 1
     221       92       91 1
     222      346       91 1
     223      347       91 1
     224       93       92 1
     225      348       92 1
     226      349       92 1
     227       94       93 1
     228      350       93 1
     229      351       93 1
     230       95       94 1
     231       99       94 1
     232      352       94 1
     233       96       95 1
     234      353       95 1
     235      354       95 1
     236       97       96 1
     237      355       96 1
     238      356       96 1
     239       98       97 1
     240      357       97 1
     241      358       97 1
     242      359       98 1
     243      360       98 1
     244      361       98 1
     245      100       99 1
     246      362       99 1
     247      363       99 1
     248      101      100 1
     249      364      100 1
     250      365      100 1
     251      102      101 1
     252      366      101 1
     253      367      101 1
     254      103      102 1
     255      368      102 1
     256      369      102 1
     257      104      103 1
     258      370      103 1
     259      371      103 1
     260      372      104 1
     261      373      104 1
     262      374      104 1
     263      106      105 1
     264      375      105 1
     265      376      105 1
     266      107      106 1
     267      377      106 1
     268      378      106 1
     269      108      107 1
     270      379      107 1
     271      380      107 1
     272      109      108 1
     273      381      108 1
     274      382      108 1
     275      110      109 1
     276      383      109 1
     277      384      109 1
     278      111      110 1
     279      385      110 1
     280      386      110 1
     281      112      111 1
     282      387      111 1
     283      388      111 1
     284      113      112 1
     285      389      112 1
     286      390      112 1
     287      114      113 1
     288      391      113 1
     289      392      113 1
     290      115      114 1
     291      393      114 1
     292      394      114 1
     293      116      115 1
     294      395      115 1
     295      396      115 1
     296      117      116 1
     297      121      116 1
     298      397      116 1
     299      118      117 1
     300      398      117 1
     301      399      117 1
     302      119      118 1
     303      400      118 1
     304      401      118 1
     305      120      119 1
     306      402      119 1
     307      403      119 1
     308      404      120 1
     309      405      120 1
     310      406      120 1
     311      122      121 1
     312      407      121 1
     313      408      121 1
     314      123      122 1
     315      409      122 1
     316      410      122 1
     317      124      123 1
     318      411      123 1
     319      412      123 1
     320      125      124 1
     321      413      124 1
     322      414      124 1
     323      126      125 1
     324      415      125 1
     325      416      125 1
     326      417      126 1
     327      418      126 1
     328      419      126 1
     329      128      127 1
     330      420      127 1
     331      129      128 1
     332      130      128 1
     333      131      130 1
     334      139      130 1
     335      132      131 1
     336      133      131 1
     337      134      133 1
     338      421      133 1
     339      135      134 1
     340      422      134 1
     341      136      135 1
     342      139      135 1
     343      137      136 1
     344      138      137 1
     345      139      138 1
     346      141      140 1
     347      423      140 1
     348      142      141 1
     349      143      142 1
     350      145      142 1
     351      167      142 1
     352      144      143 1
     353      424      144 1
     354      146      145 1
     355      425      145 1
     356      426      145 1
     357      147      146 1
     358      427      146 1
     359      428      146 1
     360      148      147 1
     361      429      147 1
     362      430      147 1
     363      149      148 1
     364      431      148 1
     365      432      148 1
     366      150      149 1
     367      433      149 1
     368      434      149 1
     369      151      150 1
     370      435      150 1
     371      436      150 1
     372      152      151 1
     373      437      151 1
     374      438      151 1
     375      153      152 1
     376      439      152 1
     377      440      152 1
     378      154      153 1
     379      441      153 1
     380      442      153 1
     381      155      154 1
     382      443      154 1
     383      444      154 1
     384      156      155 1
     385      445      155 1
     386      446      155 1
     387      157      156 1
     388      161      156 1
     389      447      156 1
     390      158      157 1
     391      448      157 1
     392      449      157 1
     393      159      158 1
     394      450      158 1
     395      451      158 1
     396      160      159 1
     397      452      159 1
     398      453      159 1
     399      454      160 1
     400      455      160 1
     401      456      160 1
     402      162      161 1
     403      457      161 1
     404      458      161 1
     405      163      162 1
     406      459      162 1
     407      460      162 1
     408      164      163 1
     409      461      163 1
     410      462      163 1
     411      165      164 1
     412      463      164 1
     413      464      164 1
     414      166      165 1
     415      465      165 1
     416      466      165 1
     417      467      166 1
     418      468      166 1
     419      469      166 1
     420      168      167 1
     421      470      167 1
     422      471      167 1
     423      169      168 1
     424      472      168 1
     425      473      168 1
     426      170      169 1
     427      474      169 1
     428      475      169 1
     429      171      170 1
     430      476      170 1
     431      477      170 1
     432      172      171 1
     433      478      171 1
     434      479      171 1
     435      173      172 1
     436      480      172 1
     437      481      172 1
     438      174      173 1
     439      482      173 1
     440      483      173 1
     441      175      174 1
     442      484      174 1
     443      485      174 1
     444      176      175 1
     445      486      175 1
     446      487      175 1
     447      177      176 1
     448      488      176 1
     449      489      176 1
     450      178      177 1
     451      490      177 1
     452      491      177 1
     453      179      178 1
     454      183      178 1
     455      492      178 1
     456      180      179 1
     457      493      179 1
     458      494      179 1
     459      181      180 1
     460      495      180 1
     461      496      180 1
     462      182      181 1
     463      497      181 1
     464      498      181 1
     465      499      182 1
     466      500      182 1
     467      501      182 1
     468      184      183 1
     469      502      183 1
     470      503      183 1
     471      185      184 1
     472      504      184 1
     473      505      184 1
     474      186      185 1
     475      506      185 1
     476      507      185 1
     477      187      186 1
     478      508      186 1
     479      509      186 1
     480      188      187 1
     481      510      187 1
     482      511      187 1
     483      512      188 1
     484      513      188 1
     485      514      188 1
     486      190      189 1
     487      515      189 1
     488      516      189 1
     489      191      190 1
     490      517      190 1
     491      518      190 1
     492      192      191 1
     493      519      191 1
     494      520      191 1
     495      193      192 1
     496      521      192 1
     497      522      192 1
     498      194      193 1
     499      523      193 1
     500      524      193 1
     501      195      194 1
     502      525      194 1
     503      526      194 1
     504      196      195 1
     505      527      195 1
     506      528      195 1
     507      197      196 1
     508      529      196 1
     509      530      196 1
     510      198      197 1
     511      531      197 1
     512      532      197 1
     513      199      198 1
     514      533      198 1
     515      534      198 1
     516      200      199 1
     517      535      199 1
     518      536      199 1
     519      201      200 1
     520      205      200 1
     521      537      200 1
     522      202      201 1
     523      538      201 1
     524      539      201 1
     525      203      202 1
     526      540      202 1
     527      541      202 1
     528      204      203 1
     529      542      203 1
     530      543      203 1
     531      544      204 1
     532      545      204 1
     533      546      204 1
     534      206      205 1
     535      547      205 1
     536      548      205 1
     537      207      206 1
     538      549      206 1
     539      550      206 1
     540      208      207 1
     541      551      207 1
     542      552      207 1
     543      209      208 1
     544      553      208 1
     545      554      208 1
     546      210      209 1
     547      555      209 1
     548      556      209 1
     549      557      210 1
     550      558      210 1
     551      559      210 1
     552      212      211 1
     553      560      211 1
     554      561      211 1
     555      213      212 1
     556      562      212 1
     557      563      212 1
     558      214      213 1
     559      564      213 1
     560      565      213 1
     561      215      214 1
     562      566      214 1
     563      567      214 1
     564      216      215 1
     565      568      215 1
     566      569      215 1
     567      217      216 1
     568      570      216 1
     569      571      216 1
     570      218      217 1
     571      572      217 1
     572      573      217 1
     573      219      218 1
     574      574      218 1
     575      575      218 1
     576      220      219 1
     577      576      219 1
     578      577      219 1
     579      221      220 1
     580      578      220 1
     581      579      220 1
     582      222      221 1
     583      580      221 1
     584      581      221 1
     585      223      222 1
     586      227      222 1
     587      582      222 1
     588      224      223 1
     589      583      223 1
     590      584      223 1
     591      225      224 1
     592      585      224 1
     593      586      224 1
     594      226      225 1
     595      587      225 1
     596      588      225 1
     597      589      226 1
     598      590      226 1
     599      591      226 1
     600      228      227 1
     601      592      227 1
     602      593      227 1
     603      229      228 1
     604      594      228 1
     605      595      228 1
     606      230      229 1
     607      596      229 1
     608      597      229 1
     609      231      230 1
     610      598      230 1
     611      599      230 1
     612      232      231 1
     613      600      231 1
     614      601      231 1
     615      602      232 1
     616      603      232 1
     617      604      232 1
@<TRIPOS>SUBSTRUCTURE
       1 Compound        1 RESIDUE    0 **** ROOT      0
