@<TRIPOS>MOLECULE
Compound
187 198 1 0 1
SMALL
NO_CHARGES
@<TRIPOS>CRYSIN
   38.3646    22.0470    12.8668    90.0000    90.0000    90.0000  1  1
@<TRIPOS>ATOM
       1 C0         -16.8823    -1.4078    -0.1687 C0            1 Compound
       2 C0         -15.6930    -0.4851    -0.0588 C0            1 Compound
       3 C0         -14.4335    -1.2600     0.3067 C0            1 Compound
       4 C0         -13.2795    -0.3022     0.1770 C0            1 Compound
       5 C0         -12.0150    -0.8202     0.8230 C0            1 Compound
       6 C0         -10.8950     0.0616     0.2897 C0            1 Compound
       7 C0         -10.3630    -0.5520    -1.0299 C0            1 Compound
       8 C0          -9.0337    -1.1822    -0.7448 C0            1 Compound
       9 C0          -9.0185    -2.2440     0.3489 C0            1 Compound
      10 C0          -7.6232    -2.3520     0.9168 C0            1 Compound
      11 C0          -6.6348    -2.5972    -0.1911 C0            1 Compound
      12 C1          -5.7884    -1.4602    -0.7883 C1            1 Compound
      13 C1          -5.6912     0.0138    -0.7298 C1            1 Compound
      14 S2          -4.1019     0.3622    -1.0831 S2            1 Compound
      15 C1          -3.6735    -1.1142    -1.5311 C1            1 Compound
      16 C1          -4.6589    -2.0063    -1.3966 C1            1 Compound
      17 S2          -4.1879    -3.6606    -1.5740 S2            1 Compound
      18 C1          -2.6454    -3.0415    -1.4198 C1            1 Compound
      19 C1          -2.5081    -1.7130    -1.4722 C1            1 Compound
      20 N3          -1.3748    -1.2380    -0.9724 N3            1 Compound
      21 C0          -1.0022     0.1598    -0.7419 C0            1 Compound
      22 C0          -0.6671     1.2988    -1.7875 C0            1 Compound
      23 C0           0.4079     0.9191    -2.8774 C0            1 Compound
      24 C0           1.5077    -0.0538    -2.4442 C0            1 Compound
      25 C0          -0.0989     2.5354    -0.9628 C0            1 Compound
      26 C0          -0.9576     3.7881    -0.5617 C0            1 Compound
      27 C0          -0.3603     5.0987    -1.2034 C0            1 Compound
      28 C0          -1.0519     6.4405    -0.9163 C0            1 Compound
      29 C1          -0.8982    -2.3459    -0.3167 C1            1 Compound
      30 C1          -1.6182    -3.5056    -0.7147 C1            1 Compound
      31 C1          -1.3855    -4.7943    -0.2393 C1            1 Compound
      32 N3          -2.0529    -5.9193    -0.6080 N3            1 Compound
      33 S2          -1.2474    -7.0914     0.2412 S2            1 Compound
      34 N3          -0.0996    -6.2425     1.0762 N3            1 Compound
      35 C1          -0.3513    -4.9657     0.6831 C1            1 Compound
      36 C1           0.3107    -3.8287     1.1395 C1            1 Compound
      37 C1           0.0617    -2.4855     0.7219 C1            1 Compound
      38 N3           0.9187    -1.6149     1.4006 N3            1 Compound
      39 C0           1.2404    -0.1284     1.5263 C0            1 Compound
      40 C0           0.3795     0.8956     2.4430 C0            1 Compound
      41 C0          -1.1306     1.3242     2.2768 C0            1 Compound
      42 C0          -2.2937     0.3348     2.4007 C0            1 Compound
      43 C0           1.1230     2.3090     2.6117 C0            1 Compound
      44 C0           2.4375     2.7123     1.8828 C0            1 Compound
      45 C0           2.3080     3.8163     0.8075 C0            1 Compound
      46 C0           3.4895     4.7813     0.6341 C0            1 Compound
      47 C1           1.7926    -2.5144     1.8911 C1            1 Compound
      48 C1           1.4089    -3.7850     1.8694 C1            1 Compound
      49 S2           2.5520    -4.9745     2.1419 S2            1 Compound
      50 C1           3.6692    -3.6973     1.8964 C1            1 Compound
      51 C1           3.1259    -2.4788     1.9237 C1            1 Compound
      52 S2           4.1592    -1.4157     1.3345 S2            1 Compound
      53 C1           5.4809    -2.3605     1.1140 C1            1 Compound
      54 C1           6.8611    -1.7421     0.8257 C1            1 Compound
      55 C1           7.2248    -0.4502     0.4628 C1            1 Compound
      56 C1           8.6181     0.0397     0.2534 C1            1 Compound
      57 O4           9.6351    -0.6150     0.4118 O4            1 Compound
      58 C1           8.5785     1.4826    -0.0330 C1            1 Compound
      59 C1           9.6024     2.4441    -0.1076 C1            1 Compound
      60 C1           9.2523     3.8108    -0.2219 C1            1 Compound
      61 F5          10.2085     4.7701    -0.2455 F5            1 Compound
      62 C1           7.9070     4.1954    -0.2607 C1            1 Compound
      63 F5           7.5505     5.5062    -0.3015 F5            1 Compound
      64 C1           6.9185     3.2256    -0.2200 C1            1 Compound
      65 C1           7.2677     1.8584    -0.1247 C1            1 Compound
      66 C1           6.3596     0.6987     0.0820 C1            1 Compound
      67 C1           5.2328     1.1286     0.5850 C1            1 Compound
      68 C6           4.3729     1.6322    -0.4542 C6            1 Compound
      69 N3           3.7631     2.0093    -1.3579 N3            1 Compound
      70 C6           4.9345     1.0493     2.0761 C6            1 Compound
      71 N3           5.9098     1.7433     2.8883 N3            1 Compound
      72 C1           4.9286    -3.6955     1.2681 C1            1 Compound
      73 C0           5.1665    -4.9463     0.4333 C0            1 Compound
      74 C0           5.3401    -4.7528    -1.1091 C0            1 Compound
      75 C0           6.6402    -5.4337    -1.4702 C0            1 Compound
      76 C0           7.7483    -4.4735    -1.0761 C0            1 Compound
      77 C0           8.8634    -5.2038    -0.4144 C0            1 Compound
      78 C0           9.7898    -4.2807     0.4175 C0            1 Compound
      79 C0          10.9849    -5.1298     0.8233 C0            1 Compound
      80 C0          11.8805    -5.2999    -0.4242 C0            1 Compound
      81 C0          12.5630    -6.6555    -0.4517 C0            1 Compound
      82 C0          13.9445    -6.5967     0.1642 C0            1 Compound
      83 C0          14.5295    -7.9984     0.2043 C0            1 Compound
      84 C1          -6.5253     1.2028    -0.2926 C1            1 Compound
      85 C1          -6.2788     2.5526    -0.4479 C1            1 Compound
      86 C1          -7.2177     3.5821     0.0387 C1            1 Compound
      87 O4          -8.3648     3.3882     0.4048 O4            1 Compound
      88 C1          -6.5336     4.8634     0.0905 C1            1 Compound
      89 C1          -7.0069     6.1162     0.4874 C1            1 Compound
      90 C1          -6.0996     7.1878     0.5470 C1            1 Compound
      91 F5          -6.5342     8.4268     0.8882 F5            1 Compound
      92 C1          -4.7357     6.9660     0.2783 C1            1 Compound
      93 F5          -3.8432     7.9811     0.4059 F5            1 Compound
      94 C1          -4.3123     5.7020    -0.1684 C1            1 Compound
      95 C1          -5.2399     4.6837    -0.3253 C1            1 Compound
      96 C1          -5.1471     3.3666    -1.0137 C1            1 Compound
      97 C1          -4.3441     3.1374    -2.1209 C1            1 Compound
      98 C6          -3.3824     4.0887    -2.6205 C6            1 Compound
      99 N3          -2.6016     4.8070    -3.0746 N3            1 Compound
     100 C6          -4.7075     2.0943    -3.1156 C6            1 Compound
     101 N3          -4.0021     1.8889    -4.1691 N3            1 Compound
     102 H7         -16.7158    -2.1113    -1.0121 H7            1 Compound
     103 H7         -17.0151    -1.9740     0.7760 H7            1 Compound
     104 H7         -17.7839    -0.7962    -0.3720 H7            1 Compound
     105 H7         -15.8714     0.2767     0.7345 H7            1 Compound
     106 H7         -15.5620     0.0412    -1.0311 H7            1 Compound
     107 H7         -14.2484    -2.1107    -0.3899 H7            1 Compound
     108 H7         -14.5242    -1.6519     1.3430 H7            1 Compound
     109 H7         -13.4991     0.6689     0.6783 H7            1 Compound
     110 H7         -13.1365    -0.1116    -0.9125 H7            1 Compound
     111 H7         -11.8198    -1.8950     0.5966 H7            1 Compound
     112 H7         -12.1262    -0.7237     1.9241 H7            1 Compound
     113 H7         -10.0953     0.1738     1.0560 H7            1 Compound
     114 H7         -11.2385     1.1071     0.1320 H7            1 Compound
     115 H7         -10.1687     0.2565    -1.7655 H7            1 Compound
     116 H7         -11.0364    -1.3028    -1.5007 H7            1 Compound
     117 H7          -8.5093    -1.5071    -1.6664 H7            1 Compound
     118 H7          -8.4792    -0.3813    -0.3562 H7            1 Compound
     119 H7          -9.6423    -2.0139     1.2328 H7            1 Compound
     120 H7          -9.3596    -3.2064    -0.0861 H7            1 Compound
     121 H7          -7.6533    -3.2344     1.6017 H7            1 Compound
     122 H7          -7.2937    -1.4789     1.5259 H7            1 Compound
     123 H7          -7.0254    -3.3020    -0.9589 H7            1 Compound
     124 H7          -5.8801    -3.1866     0.3855 H7            1 Compound
     125 H8          -1.7138     0.5486    -0.0444 H8            1 Compound
     126 H8          -0.0779     0.0393    -0.3210 H8            1 Compound
     127 H7          -1.5590     1.6557    -2.3407 H7            1 Compound
     128 H7          -0.0908     0.5038    -3.7752 H7            1 Compound
     129 H7           0.9180     1.8428    -3.2532 H7            1 Compound
     130 H7           2.0369     0.3067    -1.5526 H7            1 Compound
     131 H7           1.0803    -1.0534    -2.2292 H7            1 Compound
     132 H7           2.2514    -0.1659    -3.2628 H7            1 Compound
     133 H7           0.7138     2.9752    -1.5490 H7            1 Compound
     134 H7           0.4282     2.1597    -0.0723 H7            1 Compound
     135 H7          -2.0185     3.5874    -0.7474 H7            1 Compound
     136 H7          -0.8965     3.9512     0.5370 H7            1 Compound
     137 H7          -0.2775     4.9841    -2.3019 H7            1 Compound
     138 H7           0.6680     5.2284    -0.8262 H7            1 Compound
     139 H7          -1.9875     6.5607    -1.4869 H7            1 Compound
     140 H7          -0.4231     7.2727    -1.2921 H7            1 Compound
     141 H7          -1.2225     6.5934     0.1713 H7            1 Compound
     142 H8           2.1592    -0.0795     2.1255 H8            1 Compound
     143 H8           1.6119     0.2881     0.5811 H8            1 Compound
     144 H7           0.3914     0.4079     3.4422 H7            1 Compound
     145 H7          -1.2544     1.9285     1.3754 H7            1 Compound
     146 H7          -1.3675     2.0783     3.0665 H7            1 Compound
     147 H7          -2.7623     0.3986     3.4094 H7            1 Compound
     148 H7          -3.1087     0.6788     1.7187 H7            1 Compound
     149 H7          -2.0137    -0.6999     2.1384 H7            1 Compound
     150 H7           0.4377     3.1745     2.4908 H7            1 Compound
     151 H7           1.3279     2.4038     3.6977 H7            1 Compound
     152 H7           3.1313     3.0935     2.6608 H7            1 Compound
     153 H7           2.8553     1.8459     1.4200 H7            1 Compound
     154 H7           2.1669     3.3615    -0.1699 H7            1 Compound
     155 H7           1.4341     4.4360     1.0486 H7            1 Compound
     156 H7           4.1961     4.7647     1.4865 H7            1 Compound
     157 H7           4.0141     4.6235    -0.3316 H7            1 Compound
     158 H7           3.0783     5.8116     0.5480 H7            1 Compound
     159 H9           7.6988    -2.3804     1.0202 H9            1 Compound
     160 H9          10.6397     2.1631    -0.0266 H9            1 Compound
     161 H9           5.9003     3.5608    -0.2102 H9            1 Compound
     162 H7           5.5300    -5.8555     0.9476 H7            1 Compound
     163 H7           4.1395    -5.3567     0.2876 H7            1 Compound
     164 H7           5.3078    -3.6777    -1.4246 H7            1 Compound
     165 H7           4.5394    -5.2634    -1.7017 H7            1 Compound
     166 H7           6.7428    -5.7298    -2.5305 H7            1 Compound
     167 H7           6.6555    -6.3957    -0.8969 H7            1 Compound
     168 H7           7.3734    -3.8360    -0.3050 H7            1 Compound
     169 H7           8.0421    -3.8272    -1.9343 H7            1 Compound
     170 H7           8.4435    -5.9170     0.3294 H7            1 Compound
     171 H7           9.3316    -5.7969    -1.2156 H7            1 Compound
     172 H7           9.2315    -3.9588     1.3254 H7            1 Compound
     173 H7          10.1288    -3.3650    -0.1191 H7            1 Compound
     174 H7          11.5659    -4.7188     1.6743 H7            1 Compound
     175 H7          10.5574    -6.0987     1.1795 H7            1 Compound
     176 H7          11.2820    -5.2911    -1.3484 H7            1 Compound
     177 H7          12.5555    -4.4280    -0.5666 H7            1 Compound
     178 H7          12.6903    -6.9662    -1.5122 H7            1 Compound
     179 H7          11.9088    -7.4224     0.0241 H7            1 Compound
     180 H7          14.5720    -5.9430    -0.4838 H7            1 Compound
     181 H7          13.9138    -6.1715     1.1890 H7            1 Compound
     182 H7          13.9376    -8.6202     0.9103 H7            1 Compound
     183 H7          14.4931    -8.4645    -0.8051 H7            1 Compound
     184 H7          15.5807    -7.9497     0.5466 H7            1 Compound
     185 H9          -7.4223     1.0646     0.2518 H9            1 Compound
     186 H9          -8.0509     6.2617     0.7267 H9            1 Compound
     187 H9          -3.3021     5.4959    -0.3879 H9            1 Compound
@<TRIPOS>BOND
       1        2        1 1
       2      102        1 1
       3      103        1 1
       4      104        1 1
       5        3        2 1
       6      105        2 1
       7      106        2 1
       8        4        3 1
       9      107        3 1
      10      108        3 1
      11        5        4 1
      12      109        4 1
      13      110        4 1
      14        6        5 1
      15      111        5 1
      16      112        5 1
      17        7        6 1
      18      113        6 1
      19      114        6 1
      20        8        7 1
      21      115        7 1
      22      116        7 1
      23        9        8 1
      24      117        8 1
      25      118        8 1
      26       10        9 1
      27      119        9 1
      28      120        9 1
      29       11       10 1
      30      121       10 1
      31      122       10 1
      32       12       11 1
      33      123       11 1
      34      124       11 1
      35       13       12 1
      36       16       12 1
      37       14       13 1
      38       84       13 1
      39       15       14 1
      40       16       15 1
      41       19       15 1
      42       17       16 1
      43       18       17 1
      44       19       18 1
      45       30       18 1
      46       20       19 1
      47       21       20 1
      48       29       20 1
      49       22       21 1
      50      125       21 1
      51      126       21 1
      52       23       22 1
      53       25       22 1
      54      127       22 1
      55       24       23 1
      56      128       23 1
      57      129       23 1
      58      130       24 1
      59      131       24 1
      60      132       24 1
      61       26       25 1
      62      133       25 1
      63      134       25 1
      64       27       26 1
      65      135       26 1
      66      136       26 1
      67       28       27 1
      68      137       27 1
      69      138       27 1
      70      139       28 1
      71      140       28 1
      72      141       28 1
      73       30       29 1
      74       37       29 1
      75       31       30 1
      76       32       31 1
      77       35       31 1
      78       33       32 1
      79       34       33 1
      80       35       34 1
      81       36       35 1
      82       37       36 1
      83       48       36 1
      84       38       37 1
      85       39       38 1
      86       47       38 1
      87       40       39 1
      88      142       39 1
      89      143       39 1
      90       41       40 1
      91       43       40 1
      92      144       40 1
      93       42       41 1
      94      145       41 1
      95      146       41 1
      96      147       42 1
      97      148       42 1
      98      149       42 1
      99       44       43 1
     100      150       43 1
     101      151       43 1
     102       45       44 1
     103      152       44 1
     104      153       44 1
     105       46       45 1
     106      154       45 1
     107      155       45 1
     108      156       46 1
     109      157       46 1
     110      158       46 1
     111       48       47 1
     112       51       47 1
     113       49       48 1
     114       50       49 1
     115       51       50 1
     116       72       50 1
     117       52       51 1
     118       53       52 1
     119       54       53 1
     120       72       53 1
     121       55       54 1
     122      159       54 1
     123       56       55 1
     124       66       55 1
     125       57       56 1
     126       58       56 1
     127       59       58 1
     128       65       58 1
     129       60       59 1
     130      160       59 1
     131       61       60 1
     132       62       60 1
     133       63       62 1
     134       64       62 1
     135       65       64 1
     136      161       64 1
     137       66       65 1
     138       67       66 1
     139       68       67 1
     140       70       67 1
     141       69       68 1
     142       71       70 1
     143       73       72 1
     144       74       73 1
     145      162       73 1
     146      163       73 1
     147       75       74 1
     148      164       74 1
     149      165       74 1
     150       76       75 1
     151      166       75 1
     152      167       75 1
     153       77       76 1
     154      168       76 1
     155      169       76 1
     156       78       77 1
     157      170       77 1
     158      171       77 1
     159       79       78 1
     160      172       78 1
     161      173       78 1
     162       80       79 1
     163      174       79 1
     164      175       79 1
     165       81       80 1
     166      176       80 1
     167      177       80 1
     168       82       81 1
     169      178       81 1
     170      179       81 1
     171       83       82 1
     172      180       82 1
     173      181       82 1
     174      182       83 1
     175      183       83 1
     176      184       83 1
     177       85       84 1
     178      185       84 1
     179       86       85 1
     180       96       85 1
     181       87       86 1
     182       88       86 1
     183       89       88 1
     184       95       88 1
     185       90       89 1
     186      186       89 1
     187       91       90 1
     188       92       90 1
     189       93       92 1
     190       94       92 1
     191       95       94 1
     192      187       94 1
     193       96       95 1
     194       97       96 1
     195       98       97 1
     196      100       97 1
     197       99       98 1
     198      101      100 1
@<TRIPOS>SUBSTRUCTURE
       1 Compound        1 RESIDUE    0 **** ROOT      0
