@<TRIPOS>MOLECULE
RES
12 13 1 0 1
SMALL
NO_CHARGES
@<TRIPOS>CRYSIN
   10.5896    10.0758     5.0444    90.0000    90.0000    90.0000  1  1
@<TRIPOS>ATOM
       1 C            0.0995     0.7686    -0.0033 C             1 RES     
       2 N           -1.1470     1.2670    -0.0057 N             1 RES     
       3 S           -2.1752    -0.0392    -0.0037 S             1 RES     
       4 N           -1.0861    -1.2948    -0.0093 N             1 RES     
       5 C            0.1343    -0.7336    -0.0073 C             1 RES     
       6 C            1.3757    -1.3983    -0.0074 C             1 RES     
       7 N            2.5108    -0.6354     0.0059 N             1 RES     
       8 C            2.4379     0.7351     0.0132 C             1 RES     
       9 C            1.2885     1.5220     0.0038 C             1 RES     
      10 H            1.4874    -2.4740    -0.0148 H             1 RES     
      11 H            3.4144     1.2199     0.0296 H             1 RES     
      12 H            1.3058     2.6018     0.0065 H             1 RES     
@<TRIPOS>BOND
       1        2        1 1
       2        5        1 1
       3        9        1 1
       4        3        2 1
       5        4        3 1
       6        5        4 1
       7        6        5 1
       8        7        6 1
       9       10        6 1
      10        8        7 1
      11        9        8 1
      12       11        8 1
      13       12        9 1
@<TRIPOS>SUBSTRUCTURE
       1 RES             1 RESIDUE    0 **** ROOT      0
