@<TRIPOS>MOLECULE
Compound
187 198 1 0 1
SMALL
NO_CHARGES
@<TRIPOS>CRYSIN
   31.5650    30.6786    23.0142    90.0000    90.0000    90.0000  1  1
@<TRIPOS>ATOM
       1 C0          -1.3900     1.6860    -0.1240 C0            1 Compound
       2 C1          -0.6940     0.4690    -0.0040 C1            1 Compound
       3 C2           0.7430     0.4650     0.0060 C2            1 Compound
       4 C0           1.4460     1.6780     0.1290 C0            1 Compound
       5 C3           0.7450     2.9270     0.0990 C3            1 Compound
       6 C4          -0.6830     2.9320    -0.0910 C4            1 Compound
       7 N5          -1.2070     4.1430    -0.1590 N5            1 Compound
       8 S6           0.0380     5.2000     0.0060 S6            1 Compound
       9 N5           1.2770     4.1350     0.1690 N5            1 Compound
      10 C7          -2.7630     1.3620    -0.1380 C7            1 Compound
      11 C8          -2.8620    -0.0140     0.0080 C8            1 Compound
      12 N9          -1.6030    -0.5690     0.1000 N9            1 Compound
      13 C10          2.8170     1.3450     0.1420 C10           1 Compound
      14 C8           2.9080    -0.0310    -0.0080 C8            1 Compound
      15 N11          1.6460    -0.5780    -0.1010 N11           1 Compound
      16 C12         -4.2010    -0.4690     0.0680 C12           1 Compound
      17 C13         -5.0930     0.5970    -0.0520 C13           1 Compound
      18 S14         -4.3040     2.1600    -0.2290 S14           1 Compound
      19 C12          4.2440    -0.4930    -0.0680 C12           1 Compound
      20 C13          5.1430     0.5680     0.0540 C13           1 Compound
      21 S14          4.3620     2.1340     0.2350 S14           1 Compound
      22 C15         -6.4420     0.2130    -0.0210 C15           1 Compound
      23 C16         -6.5710    -1.1770     0.1360 C16           1 Compound
      24 S17         -4.9990    -1.9820     0.2310 S17           1 Compound
      25 C15          6.4890     0.1760     0.0220 C15           1 Compound
      26 C16          6.6100    -1.2150    -0.1380 C16           1 Compound
      27 S17          5.0340    -2.0100    -0.2350 S17           1 Compound
      28 C18         -7.8570    -1.7740     0.1890 C18           1 Compound
      29 C19         -8.3210    -3.0550     0.3370 C19           1 Compound
      30 C18          7.8930    -1.8190    -0.1930 C18           1 Compound
      31 C19          8.3500    -3.1010    -0.3430 C19           1 Compound
      32 C20         -1.3830    -1.8870     0.6770 C20           1 Compound
      33 C20          1.4180    -1.8930    -0.6800 C20           1 Compound
      34 C21          7.6380     1.1350     0.1430 C21           1 Compound
      35 C21         -7.5860     1.1790    -0.1400 C21           1 Compound
      36 C22         -9.7310    -3.4670     0.3560 C22           1 Compound
      37 C23         -9.7520    -4.9390     0.5700 C23           1 Compound
      38 C24         -8.4370    -5.4000     0.6670 C24           1 Compound
      39 C25         -7.4970    -4.2670     0.5230 C25           1 Compound
      40 C22          9.7570    -3.5210    -0.3640 C22           1 Compound
      41 C23          9.7700    -4.9930    -0.5810 C23           1 Compound
      42 C24          8.4520    -5.4470    -0.6790 C24           1 Compound
      43 C25          7.5180    -4.3080    -0.5320 C25           1 Compound
      44 C26         -8.1160    -6.7320     0.8680 C26           1 Compound
      45 C27         -9.1650    -7.6260     0.9730 C27           1 Compound
      46 C28        -10.4890    -7.1820     0.8780 C28           1 Compound
      47 C29        -10.8060    -5.8490     0.6770 C29           1 Compound
      48 C30          8.1230    -6.7770    -0.8830 C30           1 Compound
      49 C28          9.1670    -7.6760    -0.9910 C28           1 Compound
      50 C28         10.4930    -7.2400    -0.8950 C28           1 Compound
      51 C29         10.8180    -5.9090    -0.6900 C29           1 Compound
      52 O31         -6.2820    -4.3500     0.5570 O31           1 Compound
      53 O31          6.3030    -4.3840    -0.5670 O31           1 Compound
      54 F32        -11.4610    -8.0830     0.9850 F32           1 Compound
      55 F33         -8.9410    -8.9220     1.1670 F33           1 Compound
      56 F33          8.9360    -8.9700    -1.1880 F33           1 Compound
      57 F33         11.4610    -8.1460    -1.0050 F33           1 Compound
      58 C34        -10.8500    -2.6890     0.2030 C34           1 Compound
      59 C35        -12.1800    -3.2160     0.2390 C35           1 Compound
      60 N36        -13.2700    -3.6130     0.2630 N36           1 Compound
      61 C35        -10.8190    -1.2750    -0.0110 C35           1 Compound
      62 N36        -10.8230    -0.1270    -0.1840 N36           1 Compound
      63 C34         10.8810    -2.7510    -0.2090 C34           1 Compound
      64 C35         10.8580    -1.3370     0.0080 C35           1 Compound
      65 N36         10.8680    -0.1900     0.1850 N36           1 Compound
      66 C35         12.2070    -3.2850    -0.2460 C35           1 Compound
      67 N36         13.2950    -3.6890    -0.2710 N36           1 Compound
      68 H37         -8.6260    -1.0180     0.0870 H37           1 Compound
      69 H37          8.6660    -1.0670    -0.0890 H37           1 Compound
      70 H38         -0.3320    -2.1580     0.5780 H38           1 Compound
      71 H38         -2.0070    -2.6500     0.2040 H38           1 Compound
      72 H38          0.3950    -2.2100    -0.4780 H38           1 Compound
      73 H38          2.1180    -2.6380    -0.2930 H38           1 Compound
      74 H39          8.2740     1.1190    -0.7470 H39           1 Compound
      75 H39          8.2770     0.8940     0.9980 H39           1 Compound
      76 H39         -8.2210     1.1640     0.7500 H39           1 Compound
      77 H39         -8.2250     0.9440    -0.9950 H39           1 Compound
      78 H40         -7.0860    -7.0620     0.9400 H40           1 Compound
      79 H41        -11.8500    -5.5780     0.6110 H41           1 Compound
      80 H40          7.0910    -7.1000    -0.9560 H40           1 Compound
      81 H41         11.8640    -5.6440    -0.6240 H41           1 Compound
      82 C42          7.1260     2.5750     0.3300 C42           1 Compound
      83 H43          6.5440     2.8600    -0.5210 H43           1 Compound
      84 H43          6.5200     2.6270     1.2110 H43           1 Compound
      85 C44          8.3250     3.5320     0.4750 C44           1 Compound
      86 H45          8.8980     3.2580     1.3360 H45           1 Compound
      87 H45          8.9400     3.4670    -0.3980 H45           1 Compound
      88 C46          7.8130     4.9750     0.6370 C46           1 Compound
      89 H47          7.2430     5.2500    -0.2260 H47           1 Compound
      90 H47          7.1950     5.0390     1.5080 H47           1 Compound
      91 C48          9.0120     5.9310     0.7860 C48           1 Compound
      92 H47          9.5820     5.6550     1.6480 H47           1 Compound
      93 H47          9.6290     5.8670    -0.0860 H47           1 Compound
      94 C48          8.5000     7.3740     0.9480 C48           1 Compound
      95 H47          7.8810     7.4370     1.8190 H47           1 Compound
      96 H47          7.9310     7.6500     0.0850 H47           1 Compound
      97 C46          9.6980     8.3290     1.1010 C46           1 Compound
      98 H45         10.2670     8.0530     1.9640 H45           1 Compound
      99 H45         10.3170     8.2660     0.2300 H45           1 Compound
     100 C46          9.1870     9.7730     1.2630 C46           1 Compound
     101 H45          8.5670     9.8360     2.1340 H45           1 Compound
     102 H45          8.6180    10.0490     0.4000 H45           1 Compound
     103 C49         10.3850    10.7280     1.4150 C49           1 Compound
     104 H45         10.9540    10.4520     2.2780 H45           1 Compound
     105 H45         11.0040    10.6650     0.5450 H45           1 Compound
     106 C50          9.8730    12.1710     1.5780 C50           1 Compound
     107 H51          9.2550    12.2340     2.4490 H51           1 Compound
     108 H51          9.3040    12.4480     0.7160 H51           1 Compound
     109 C52         11.0720    13.1270     1.7300 C52           1 Compound
     110 H53         10.7160    14.1300     1.8430 H53           1 Compound
     111 H53         11.6410    12.8510     2.5930 H53           1 Compound
     112 H53         11.6900    13.0640     0.8590 H53           1 Compound
     113 C42         -7.0650     2.6170    -0.3230 C42           1 Compound
     114 H43         -6.4810     2.8960     0.5280 H43           1 Compound
     115 H43         -6.4590     2.6670    -1.2040 H43           1 Compound
     116 C54         -8.2580     3.5800    -0.4660 C54           1 Compound
     117 H45         -8.8330     3.3110    -1.3270 H45           1 Compound
     118 H45         -8.8730     3.5170     0.4080 H45           1 Compound
     119 C46         -7.7380     5.0210    -0.6250 C46           1 Compound
     120 H45         -7.1660     5.2910     0.2370 H45           1 Compound
     121 H45         -7.1210     5.0830    -1.4970 H45           1 Compound
     122 C46         -8.9310     5.9840    -0.7720 C46           1 Compound
     123 H45         -9.5490     5.9210     0.0990 H45           1 Compound
     124 H45         -9.5030     5.7140    -1.6360 H45           1 Compound
     125 C46         -8.4110     7.4240    -0.9310 C46           1 Compound
     126 H45         -7.8420     7.6960    -0.0670 H45           1 Compound
     127 H45         -7.7910     7.4860    -1.8010 H45           1 Compound
     128 C46         -9.6040     8.3870    -1.0830 C46           1 Compound
     129 H45        -10.1740     8.1150    -1.9480 H45           1 Compound
     130 H45        -10.2250     8.3260    -0.2140 H45           1 Compound
     131 C46         -9.0840     9.8270    -1.2430 C46           1 Compound
     132 H45         -8.5160    10.0990    -0.3790 H45           1 Compound
     133 H45         -8.4630     9.8880    -2.1120 H45           1 Compound
     134 C49        -10.2770    10.7890    -1.3970 C49           1 Compound
     135 H45        -10.8460    10.5170    -2.2610 H45           1 Compound
     136 H45        -10.8980    10.7290    -0.5280 H45           1 Compound
     137 C55         -9.7570    12.2300    -1.5570 C55           1 Compound
     138 H51         -9.1890    12.5020    -0.6920 H51           1 Compound
     139 H51         -9.1360    12.2900    -2.4260 H51           1 Compound
     140 C52        -10.9500    13.1920    -1.7110 C52           1 Compound
     141 H56        -10.5890    14.1930    -1.8230 H56           1 Compound
     142 H56        -11.5180    12.9200    -2.5760 H56           1 Compound
     143 H56        -11.5710    13.1320    -0.8420 H56           1 Compound
     144 C57          1.4289    -2.9819    -1.7689 C57           1 Compound
     145 O58          0.6997    -3.8309    -2.6445 O58           1 Compound
     146 C59          1.5211    -4.2939    -3.7150 C59           1 Compound
     147 C60          0.7002    -5.1973    -4.6248 C60           1 Compound
     148 O61          1.5248    -5.6584    -5.6941 O61           1 Compound
     149 C59          0.7928    -6.5108    -6.5734 C59           1 Compound
     150 C62          1.7101    -6.9772    -7.6954 C62           1 Compound
     151 O63          0.9815    -7.8299    -8.5768 O63           1 Compound
     152 C64          1.8028    -8.2891    -9.6416 C64           1 Compound
     153 H65          1.7907    -2.1003    -2.3063 H65           1 Compound
     154 H65          2.2685    -3.5240    -1.3238 H65           1 Compound
     155 H66          2.3799    -4.8485    -3.3184 H66           1 Compound
     156 H66          1.9081    -3.4431    -4.2882 H66           1 Compound
     157 H66         -0.1578    -4.6434    -5.0236 H66           1 Compound
     158 H66          0.3141    -6.0495    -4.0533 H66           1 Compound
     159 H66         -0.0643    -5.9712    -6.9933 H66           1 Compound
     160 H66          0.4077    -7.3774    -6.0230 H66           1 Compound
     161 H66          2.5677    -7.5150    -7.2740 H66           1 Compound
     162 H66          2.0959    -6.1096    -8.2438 H66           1 Compound
     163 H67          1.2016    -8.9356   -10.2863 H67           1 Compound
     164 H67          2.6451    -8.8678    -9.2511 H67           1 Compound
     165 H67          2.1672    -7.4441   -10.2335 H67           1 Compound
     166 C57         -1.3721    -2.9759     1.7659 C57           1 Compound
     167 O58         -2.1015    -3.8336     2.6327 O58           1 Compound
     168 C59         -1.2953    -4.9237     3.0764 C59           1 Compound
     169 C60         -2.1158    -5.8135     3.9998 C60           1 Compound
     170 O61         -1.3064    -6.9024     4.4414 O61           1 Compound
     171 C59         -2.0386    -7.7639     5.3117 C59           1 Compound
     172 C62         -1.1376    -8.9076     5.7564 C62           1 Compound
     173 O68         -1.8665    -9.7712     6.6269 O68           1 Compound
     174 C64         -1.0603   -10.8556     7.0667 C64           1 Compound
     175 H65         -1.0448    -3.5218     0.8761 H65           1 Compound
     176 H65         -0.5091    -2.5513     2.2873 H65           1 Compound
     177 H66         -0.4140    -4.5480     3.6099 H66           1 Compound
     178 H66         -0.9429    -5.5060     2.2167 H66           1 Compound
     179 H66         -2.9963    -6.1914     3.4669 H66           1 Compound
     180 H66         -2.4673    -5.2329     4.8607 H66           1 Compound
     181 H66         -2.9184    -8.1629     4.7932 H66           1 Compound
     182 H66         -2.3893    -7.2044     6.1870 H66           1 Compound
     183 H66         -0.2574    -8.5071     6.2732 H66           1 Compound
     184 H66         -0.7862    -9.4652     4.8800 H66           1 Compound
     185 H69         -1.6611   -11.4856     7.7279 H69           1 Compound
     186 H69         -0.1951   -10.4856     7.6247 H69           1 Compound
     187 H69         -0.7308   -11.4561     6.2135 H69           1 Compound
@<TRIPOS>BOND
       1        2        1 1
       2       10        1 1
       3        6        1 1
       4        3        2 1
       5       12        2 1
       6        4        3 1
       7       15        3 1
       8        5        4 1
       9       13        4 1
      10        6        5 1
      11        9        5 1
      12        7        6 1
      13        8        7 1
      14        9        8 1
      15       11       10 1
      16       18       10 1
      17       12       11 1
      18       16       11 1
      19       32       12 1
      20       14       13 1
      21       21       13 1
      22       15       14 1
      23       19       14 1
      24       33       15 1
      25       17       16 1
      26       24       16 1
      27       18       17 1
      28       22       17 1
      29       20       19 1
      30       27       19 1
      31       21       20 1
      32       25       20 1
      33       23       22 1
      34       35       22 1
      35       24       23 1
      36       28       23 1
      37       26       25 1
      38       34       25 1
      39       27       26 1
      40       30       26 1
      41       29       28 1
      42       68       28 1
      43       36       29 1
      44       39       29 1
      45       31       30 1
      46       69       30 1
      47       40       31 1
      48       43       31 1
      49       70       32 1
      50       71       32 1
      51      166       32 1
      52       72       33 1
      53       73       33 1
      54      144       33 1
      55       82       34 1
      56       74       34 1
      57       75       34 1
      58      113       35 1
      59       77       35 1
      60       76       35 1
      61       58       36 1
      62       37       36 1
      63       47       37 1
      64       38       37 1
      65       39       38 1
      66       44       38 1
      67       52       39 1
      68       63       40 1
      69       41       40 1
      70       51       41 1
      71       42       41 1
      72       43       42 1
      73       48       42 1
      74       53       43 1
      75       45       44 1
      76       78       44 1
      77       46       45 1
      78       55       45 1
      79       47       46 1
      80       54       46 1
      81       79       47 1
      82       49       48 1
      83       80       48 1
      84       50       49 1
      85       56       49 1
      86       51       50 1
      87       57       50 1
      88       81       51 1
      89       61       58 1
      90       59       58 1
      91       60       59 1
      92       62       61 1
      93       66       63 1
      94       64       63 1
      95       65       64 1
      96       67       66 1
      97       85       82 1
      98       83       82 1
      99       84       82 1
     100       88       85 1
     101       87       85 1
     102       86       85 1
     103       91       88 1
     104       90       88 1
     105       89       88 1
     106       94       91 1
     107       92       91 1
     108       93       91 1
     109       97       94 1
     110       96       94 1
     111       95       94 1
     112      100       97 1
     113       98       97 1
     114       99       97 1
     115      103      100 1
     116      102      100 1
     117      101      100 1
     118      106      103 1
     119      105      103 1
     120      104      103 1
     121      109      106 1
     122      108      106 1
     123      107      106 1
     124      112      109 1
     125      111      109 1
     126      110      109 1
     127      116      113 1
     128      114      113 1
     129      115      113 1
     130      119      116 1
     131      117      116 1
     132      118      116 1
     133      122      119 1
     134      120      119 1
     135      121      119 1
     136      125      122 1
     137      123      122 1
     138      124      122 1
     139      128      125 1
     140      126      125 1
     141      127      125 1
     142      131      128 1
     143      130      128 1
     144      129      128 1
     145      134      131 1
     146      132      131 1
     147      133      131 1
     148      137      134 1
     149      135      134 1
     150      136      134 1
     151      140      137 1
     152      139      137 1
     153      138      137 1
     154      143      140 1
     155      142      140 1
     156      141      140 1
     157      145      144 1
     158      153      144 1
     159      154      144 1
     160      146      145 1
     161      147      146 1
     162      155      146 1
     163      156      146 1
     164      148      147 1
     165      157      147 1
     166      158      147 1
     167      149      148 1
     168      150      149 1
     169      159      149 1
     170      160      149 1
     171      151      150 1
     172      161      150 1
     173      162      150 1
     174      152      151 1
     175      163      152 1
     176      164      152 1
     177      165      152 1
     178      167      166 1
     179      175      166 1
     180      176      166 1
     181      168      167 1
     182      169      168 1
     183      177      168 1
     184      178      168 1
     185      170      169 1
     186      179      169 1
     187      180      169 1
     188      171      170 1
     189      172      171 1
     190      181      171 1
     191      182      171 1
     192      173      172 1
     193      183      172 1
     194      184      172 1
     195      174      173 1
     196      185      174 1
     197      186      174 1
     198      187      174 1
@<TRIPOS>SUBSTRUCTURE
       1 Compound        1 RESIDUE    0 **** ROOT      0
