@<TRIPOS>MOLECULE
Compound
6 5 1 0 1
SMALL
NO_CHARGES
@<TRIPOS>CRYSIN
    7.6400     6.9505     5.9705    90.0000    90.0000    90.0000  1  1
@<TRIPOS>ATOM
       1 C            0.6582     0.0619     0.0761 C             1 Compound
       2 C           -0.6582    -0.0619    -0.0761 C             1 Compound
       3 H            1.0777     0.9753     0.4853 H             1 Compound
       4 H            1.3200    -0.7498    -0.2082 H             1 Compound
       5 H           -1.3200     0.7498     0.2082 H             1 Compound
       6 H           -1.0777    -0.9753    -0.4853 H             1 Compound
@<TRIPOS>BOND
       1        2        1 1
       2        3        1 1
       3        4        1 1
       4        5        2 1
       5        6        2 1
@<TRIPOS>SUBSTRUCTURE
       1 Compound        1 RESIDUE    0 **** ROOT      0
