@<TRIPOS>MOLECULE
RES
17 19 1 0 1
SMALL
NO_CHARGES
@<TRIPOS>CRYSIN
   13.4399     7.3473     9.1215    90.0000    90.0000    90.0000  1  1
@<TRIPOS>ATOM
       1 C0           0.0313    -0.4614    -1.2238 C0            1 RES     
       2 C1          -1.1357    -0.0661    -0.3518 C1            1 RES     
       3 C2          -0.7373     0.3670     0.8725 C2            1 RES     
       4 S3          -2.0351     0.8060     1.8307 S3            1 RES     
       5 C4          -3.1705     0.4207     0.6144 C4            1 RES     
       6 C5          -2.5149    -0.0486    -0.5326 C5            1 RES     
       7 C2           0.6908     0.3043     0.9326 C2            1 RES     
       8 C1           1.1511    -0.1666    -0.2554 C1            1 RES     
       9 C5           2.5367    -0.2705    -0.3197 C5            1 RES     
      10 C4           3.1324     0.1437     0.8800 C4            1 RES     
      11 S3           1.9370     0.6315     1.9981 S3            1 RES     
      12 H6           0.0976     0.1856    -2.1234 H6            1 RES     
      13 H6          -0.0054    -1.5413    -1.4786 H6            1 RES     
      14 H7          -4.2426     0.5238     0.7126 H7            1 RES     
      15 H8          -3.0159    -0.3565    -1.4404 H8            1 RES     
      16 H8           3.0834    -0.6245    -1.1834 H8            1 RES     
      17 H7           4.1973     0.1530     1.0682 H7            1 RES     
@<TRIPOS>BOND
       1        2        1 1
       2        8        1 1
       3       12        1 1
       4       13        1 1
       5        3        2 1
       6        6        2 1
       7        4        3 1
       8        7        3 1
       9        5        4 1
      10        6        5 1
      11       14        5 1
      12       15        6 1
      13        8        7 1
      14       11        7 1
      15        9        8 1
      16       10        9 1
      17       16        9 1
      18       11       10 1
      19       17       10 1
@<TRIPOS>SUBSTRUCTURE
       1 RES             1 RESIDUE    0 **** ROOT      0
