@<TRIPOS>MOLECULE
RES
231 237 1 0 1
SMALL
NO_CHARGES
@<TRIPOS>CRYSIN
   22.9650    32.6080    30.7890    90.0000    90.0000    90.0000  1  1
@<TRIPOS>ATOM
       1 C            2.0170    -1.1380     1.0880 C             1 RES     
       2 C            3.2780    -0.2210     1.0110 C             1 RES     
       3 C            2.7350     1.1190     0.4540 C             1 RES     
       4 C            1.5430     0.7770    -0.4550 C             1 RES     
       5 C            0.2420     1.5280    -0.0470 C             1 RES     
       6 C           -0.9770     0.8960    -0.7620 C             1 RES     
       7 C           -1.0780    -0.5650    -0.3880 C             1 RES     
       8 C            0.1300    -1.3350    -0.8570 C             1 RES     
       9 C            1.4040    -0.7330    -0.2710 C             1 RES     
      10 C           -2.3480    -1.0420    -1.0410 C             1 RES     
      11 C           -3.1830     0.2230    -1.2090 C             1 RES     
      12 C           -2.4240     1.4080    -0.5290 C             1 RES     
      13 C           -4.5820    -0.0970    -0.8100 C             1 RES     
      14 C           -4.7330    -1.3270    -0.2210 C             1 RES     
      15 S           -3.2230    -2.2420     0.0200 S             1 RES     
      16 S            4.0590     2.0040    -0.4410 S             1 RES     
      17 C            5.0200     0.4700    -0.6900 C             1 RES     
      18 C            4.3950    -0.6190     0.0950 C             1 RES     
      19 H            0.3310     2.6060    -0.2920 H             1 RES     
      20 H            0.1920    -1.2660    -1.9660 H             1 RES     
      21 H           -5.4240     0.5590    -0.9720 H             1 RES     
      22 H           -5.6920    -1.6980     0.1130 H             1 RES     
      23 H            4.9430    -1.5430     0.2120 H             1 RES     
      24 C            4.0400     0.2770    -3.0560 C             1 RES     
      25 C            5.2750     0.0900    -2.1550 C             1 RES     
      26 C            6.4480     0.8990    -2.7120 C             1 RES     
      27 N            7.6670     0.6810    -1.9620 N             1 RES     
      28 S            8.9940     1.1110    -3.0660 S             1 RES     
      29 N            7.9480     1.1590    -4.5020 N             1 RES     
      30 C            6.7510     0.4530    -4.1090 C             1 RES     
      31 C            5.5690     0.7580    -5.0150 C             1 RES     
      32 C            4.3630    -0.0470    -4.5220 C             1 RES     
      33 H            3.2010    -0.3610    -2.7080 H             1 RES     
      34 H            5.8080     0.4660    -6.0600 H             1 RES     
      35 H            3.4810     0.1700    -5.1590 H             1 RES     
      36 C            1.3530    -0.6130     2.4360 C             1 RES     
      37 C           -0.0270    -1.0720     2.8750 C             1 RES     
      38 C           -0.4780    -0.4960     4.2340 C             1 RES     
      39 C            0.2480    -0.9960     5.5060 C             1 RES     
      40 C            0.2710    -2.5340     5.5880 C             1 RES     
      41 C            0.5350    -3.1220     6.9860 C             1 RES     
      42 C           -0.7000    -2.9890     7.8980 C             1 RES     
      43 C           -0.5280    -3.7420     9.2290 C             1 RES     
      44 C           -1.8340    -3.6840    10.0370 C             1 RES     
      45 C           -1.8100    -4.2360    11.4810 C             1 RES     
      46 C           -1.6420    -5.7580    11.6860 C             1 RES     
      47 C           -0.1930    -6.2700    11.5890 C             1 RES     
      48 C           -0.0280    -7.7940    11.7850 C             1 RES     
      49 C           -0.0370    -8.3540    13.2280 C             1 RES     
      50 C           -1.3430    -8.2880    14.0370 C             1 RES     
      51 C           -2.5110    -9.0020    13.3580 C             1 RES     
      52 H            1.2810     0.4960     2.4230 H             1 RES     
      53 H            2.0580    -0.8730     3.2580 H             1 RES     
      54 H           -0.7570    -0.7540     2.1170 H             1 RES     
      55 H           -0.0710    -2.1440     2.9740 H             1 RES     
      56 H           -0.4580     0.6160     4.2050 H             1 RES     
      57 H           -1.5280    -0.8190     4.3570 H             1 RES     
      58 H            1.2870    -0.6070     5.5780 H             1 RES     
      59 H           -0.3250    -0.5750     6.3590 H             1 RES     
      60 H           -0.6930    -2.9570     5.2310 H             1 RES     
      61 H            1.0800    -2.8710     4.9110 H             1 RES     
      62 H            1.4420    -2.6720     7.4450 H             1 RES     
      63 H            0.7190    -4.2090     6.8450 H             1 RES     
      64 H           -0.9180    -1.9200     8.1010 H             1 RES     
      65 H           -1.5720    -3.4330     7.3670 H             1 RES     
      66 H           -0.2890    -4.7920     8.9870 H             1 RES     
      67 H            0.3030    -3.2830     9.8070 H             1 RES     
      68 H           -2.1150    -2.6110    10.1310 H             1 RES     
      69 H           -2.6400    -4.1940     9.4660 H             1 RES     
      70 H           -1.0780    -3.6830    12.1080 H             1 RES     
      71 H           -2.8230    -3.9970    11.8770 H             1 RES     
      72 H           -2.3170    -6.3060    10.9960 H             1 RES     
      73 H           -1.9940    -5.9480    12.7080 H             1 RES     
      74 H            0.1710    -6.0660    10.5730 H             1 RES     
      75 H            0.4730    -5.7270    12.2940 H             1 RES     
      76 H            0.9900    -8.0360    11.4050 H             1 RES     
      77 H           -0.7410    -8.3400    11.1390 H             1 RES     
      78 H            0.2420    -9.4290    13.1550 H             1 RES     
      79 H            0.7600    -7.8450    13.8110 H             1 RES     
      80 H           -1.1620    -8.7850    15.0150 H             1 RES     
      81 H           -1.6110    -7.2460    14.2760 H             1 RES     
      82 H           -2.2650   -10.0730    13.2050 H             1 RES     
      83 H           -3.4080    -8.9440    14.0080 H             1 RES     
      84 H           -2.7550    -8.5320    12.3830 H             1 RES     
      85 C            2.3820    -2.6880     1.1500 C             1 RES     
      86 C            1.4520    -3.7640     0.5000 C             1 RES     
      87 C            0.0470    -3.9790     1.0870 C             1 RES     
      88 C            0.0500    -4.5980     2.4920 C             1 RES     
      89 C            0.3570    -6.0960     2.5000 C             1 RES     
      90 C            0.4380    -6.6640     3.9260 C             1 RES     
      91 C           -0.8570    -6.5000     4.7440 C             1 RES     
      92 C           -0.7150    -7.2190     6.0850 C             1 RES     
      93 C           -1.9850    -7.0980     6.9300 C             1 RES     
      94 C           -1.8970    -7.6980     8.3500 C             1 RES     
      95 C           -1.8400    -9.2360     8.4990 C             1 RES     
      96 C           -0.4560    -9.8700     8.2440 C             1 RES     
      97 C           -0.3870   -11.4000     8.4300 C             1 RES     
      98 C           -0.2120   -11.9380     9.8670 C             1 RES     
      99 C           -1.3590   -11.7250    10.8610 C             1 RES     
     100 C           -2.6840   -12.3140    10.3830 C             1 RES     
     101 H            2.6780    -2.9710     2.1810 H             1 RES     
     102 H            3.2820    -2.8450     0.5350 H             1 RES     
     103 H            1.3350    -3.5190    -0.5740 H             1 RES     
     104 H            1.9780    -4.7390     0.5080 H             1 RES     
     105 H           -0.4740    -3.0110     1.0810 H             1 RES     
     106 H           -0.5520    -4.6400     0.4220 H             1 RES     
     107 H            0.7920    -4.0860     3.1270 H             1 RES     
     108 H           -0.9680    -4.4550     2.9130 H             1 RES     
     109 H           -0.4270    -6.6350     1.9280 H             1 RES     
     110 H            1.3390    -6.2850     2.0200 H             1 RES     
     111 H            1.2770    -6.1790     4.4740 H             1 RES     
     112 H            0.6690    -7.7480     3.8310 H             1 RES     
     113 H           -1.0620    -5.4240     4.9310 H             1 RES     
     114 H           -1.7090    -6.9390     4.1820 H             1 RES     
     115 H           -0.5260    -8.2690     5.8350 H             1 RES     
     116 H            0.1430    -6.7920     6.6500 H             1 RES     
     117 H           -2.1890    -6.0110     7.0630 H             1 RES     
     118 H           -2.8460    -7.5440     6.3880 H             1 RES     
     119 H           -1.0720    -7.2270     8.9210 H             1 RES     
     120 H           -2.8410    -7.3880     8.8400 H             1 RES     
     121 H           -2.6210    -9.7050     7.8620 H             1 RES     
     122 H           -2.1180    -9.4300     9.5430 H             1 RES     
     123 H           -0.2050    -9.7220     7.1910 H             1 RES     
     124 H            0.3340    -9.3800     8.8550 H             1 RES     
     125 H            0.5400   -11.7270     7.9070 H             1 RES     
     126 H           -1.2340   -11.8900     7.9030 H             1 RES     
     127 H            0.7110   -11.4970    10.3030 H             1 RES     
     128 H           -0.0480   -13.0350     9.7830 H             1 RES     
     129 H           -1.0800   -12.2230    11.8160 H             1 RES     
     130 H           -1.4710   -10.6560    11.0950 H             1 RES     
     131 H           -2.5750   -13.4030    10.1940 H             1 RES     
     132 H           -3.4570   -12.1640    11.1660 H             1 RES     
     133 H           -3.0290   -11.8140     9.4550 H             1 RES     
     134 C           -2.6480     2.7480    -1.3040 C             1 RES     
     135 C           -4.1300     3.1440    -1.5440 C             1 RES     
     136 C           -4.7310     2.7700    -2.9150 C             1 RES     
     137 C           -4.2630     3.6350    -4.1020 C             1 RES     
     138 C           -4.4480     5.1340    -3.7980 C             1 RES     
     139 C           -4.3140     6.0630    -5.0020 C             1 RES     
     140 C           -5.5270     5.9800    -5.9440 C             1 RES     
     141 C           -5.4510     7.1020    -6.9810 C             1 RES     
     142 C           -6.7040     7.1710    -7.8520 C             1 RES     
     143 C           -6.6490     8.1900    -9.0130 C             1 RES     
     144 C           -6.4410     9.6810    -8.6560 C             1 RES     
     145 C           -4.9650    10.0820    -8.4110 C             1 RES     
     146 C           -4.7440    11.5640    -8.0420 C             1 RES     
     147 C           -4.6790    12.5820    -9.2050 C             1 RES     
     148 C           -5.9470    12.8180   -10.0330 C             1 RES     
     149 C           -7.1310    13.2710    -9.1860 C             1 RES     
     150 H           -2.1350     2.7440    -2.2900 H             1 RES     
     151 H           -2.1510     3.5400    -0.7020 H             1 RES     
     152 H           -4.7890     2.6840    -0.8050 H             1 RES     
     153 H           -4.2540     4.2300    -1.3720 H             1 RES     
     154 H           -4.5820     1.6910    -3.1370 H             1 RES     
     155 H           -5.8290     2.9360    -2.8330 H             1 RES     
     156 H           -3.2010     3.4390    -4.3600 H             1 RES     
     157 H           -4.8890     3.3380    -4.9700 H             1 RES     
     158 H           -5.4440     5.3190    -3.3380 H             1 RES     
     159 H           -3.6640     5.4310    -3.0700 H             1 RES     
     160 H           -3.3590     5.8830    -5.5430 H             1 RES     
     161 H           -4.2860     7.0960    -4.5870 H             1 RES     
     162 H           -5.5770     4.9910    -6.4450 H             1 RES     
     163 H           -6.4550     6.1260    -5.3460 H             1 RES     
     164 H           -5.3920     8.0430    -6.4050 H             1 RES     
     165 H           -4.5480     6.9570    -7.6140 H             1 RES     
     166 H           -6.8770     6.1710    -8.3080 H             1 RES     
     167 H           -7.5760     7.4030    -7.2000 H             1 RES     
     168 H           -5.8970     7.8850    -9.7720 H             1 RES     
     169 H           -7.6490     8.1120    -9.4960 H             1 RES     
     170 H           -7.0920     9.9570    -7.7980 H             1 RES     
     171 H           -6.7960    10.2400    -9.5330 H             1 RES     
     172 H           -4.5830     9.5260    -7.5490 H             1 RES     
     173 H           -4.3230     9.8090    -9.2750 H             1 RES     
     174 H           -3.7310    11.6160    -7.5830 H             1 RES     
     175 H           -5.4620    11.8770    -7.2530 H             1 RES     
     176 H           -4.3870    13.5580    -8.7590 H             1 RES     
     177 H           -3.8630    12.2770    -9.8950 H             1 RES     
     178 H           -5.7220    13.6160   -10.7740 H             1 RES     
     179 H           -6.2060    11.9210   -10.6220 H             1 RES     
     180 H           -6.8800    14.2050    -8.6380 H             1 RES     
     181 H           -8.0020    13.4720    -9.8470 H             1 RES     
     182 H           -7.4250    12.4890    -8.4570 H             1 RES     
     183 C           -2.6580     1.5620     1.0380 C             1 RES     
     184 C           -4.0290     2.0980     1.5060 C             1 RES     
     185 C           -4.2250     2.2520     3.0190 C             1 RES     
     186 C           -4.0350     0.9910     3.8700 C             1 RES     
     187 C           -4.7560    -0.2590     3.3290 C             1 RES     
     188 C           -4.7170    -1.4360     4.3190 C             1 RES     
     189 C           -5.7440    -1.2400     5.4430 C             1 RES     
     190 C           -5.7190    -2.3780     6.4710 C             1 RES     
     191 C           -6.8850    -2.1970     7.4550 C             1 RES     
     192 C           -6.8710    -3.0530     8.7350 C             1 RES     
     193 C           -7.0090    -4.5840     8.6170 C             1 RES     
     194 C           -5.7180    -5.3030     8.1940 C             1 RES     
     195 C           -5.7850    -6.8450     8.2040 C             1 RES     
     196 C           -5.6810    -7.5560     9.5790 C             1 RES     
     197 C           -6.9060    -7.5470    10.5100 C             1 RES     
     198 C           -8.1410    -8.1700     9.8610 C             1 RES     
     199 H           -2.4850     0.5850     1.5220 H             1 RES     
     200 H           -1.9000     2.2690     1.4370 H             1 RES     
     201 H           -4.1680     3.1250     1.1180 H             1 RES     
     202 H           -4.8410     1.4440     1.1450 H             1 RES     
     203 H           -3.5460     3.0410     3.4110 H             1 RES     
     204 H           -5.2690     2.6080     3.1640 H             1 RES     
     205 H           -2.9560     0.7710     3.9340 H             1 RES     
     206 H           -4.3840     1.2500     4.8910 H             1 RES     
     207 H           -5.8120    -0.0400     3.0620 H             1 RES     
     208 H           -4.2290    -0.5710     2.4070 H             1 RES     
     209 H           -3.6900    -1.5730     4.7190 H             1 RES     
     210 H           -5.0000    -2.3640     3.7750 H             1 RES     
     211 H           -5.5610    -0.2860     5.9810 H             1 RES     
     212 H           -6.7520    -1.1920     4.9730 H             1 RES     
     213 H           -5.8330    -3.3390     5.9350 H             1 RES     
     214 H           -4.7460    -2.3500     7.0080 H             1 RES     
     215 H           -6.8630    -1.1440     7.8130 H             1 RES     
     216 H           -7.8440    -2.3470     6.9100 H             1 RES     
     217 H           -5.9770    -2.8080     9.3500 H             1 RES     
     218 H           -7.7620    -2.7100     9.3070 H             1 RES     
     219 H           -7.8610    -4.8550     7.9570 H             1 RES     
     220 H           -7.2520    -4.9110     9.6340 H             1 RES     
     221 H           -5.4930    -5.0190     7.1550 H             1 RES     
     222 H           -4.8650    -4.9790     8.8280 H             1 RES     
     223 H           -4.8740    -7.1670     7.6590 H             1 RES     
     224 H           -6.6440    -7.2150     7.6060 H             1 RES     
     225 H           -5.4640    -8.6260     9.3670 H             1 RES     
     226 H           -4.8070    -7.1490    10.1340 H             1 RES     
     227 H           -6.6480    -8.1520    11.4070 H             1 RES     
     228 H           -7.1390    -6.5400    10.8870 H             1 RES     
     229 H           -7.9200    -9.2090     9.5370 H             1 RES     
     230 H           -8.9710    -8.1980    10.5970 H             1 RES     
     231 H           -8.4720    -7.5730     8.9870 H             1 RES     
@<TRIPOS>BOND
       1        2        1 1
       2        9        1 1
       3       36        1 1
       4       85        1 1
       5        3        2 1
       6       18        2 1
       7        4        3 1
       8       16        3 1
       9        5        4 1
      10        9        4 1
      11        6        5 1
      12       19        5 1
      13        7        6 1
      14       12        6 1
      15        8        7 1
      16       10        7 1
      17        9        8 1
      18       20        8 1
      19       11       10 1
      20       15       10 1
      21       12       11 1
      22       13       11 1
      23      134       12 1
      24      183       12 1
      25       14       13 1
      26       21       13 1
      27       15       14 1
      28       22       14 1
      29       17       16 1
      30       18       17 1
      31       25       17 1
      32       23       18 1
      33       25       24 1
      34       32       24 1
      35       33       24 1
      36       26       25 1
      37       27       26 1
      38       30       26 1
      39       28       27 1
      40       29       28 1
      41       30       29 1
      42       31       30 1
      43       32       31 1
      44       34       31 1
      45       35       32 1
      46       37       36 1
      47       52       36 1
      48       53       36 1
      49       38       37 1
      50       54       37 1
      51       55       37 1
      52       39       38 1
      53       56       38 1
      54       57       38 1
      55       40       39 1
      56       58       39 1
      57       59       39 1
      58       41       40 1
      59       60       40 1
      60       61       40 1
      61       42       41 1
      62       62       41 1
      63       63       41 1
      64       43       42 1
      65       64       42 1
      66       65       42 1
      67       44       43 1
      68       66       43 1
      69       67       43 1
      70       45       44 1
      71       68       44 1
      72       69       44 1
      73       46       45 1
      74       70       45 1
      75       71       45 1
      76       47       46 1
      77       72       46 1
      78       73       46 1
      79       48       47 1
      80       74       47 1
      81       75       47 1
      82       49       48 1
      83       76       48 1
      84       77       48 1
      85       50       49 1
      86       78       49 1
      87       79       49 1
      88       51       50 1
      89       80       50 1
      90       81       50 1
      91       82       51 1
      92       83       51 1
      93       84       51 1
      94       86       85 1
      95      101       85 1
      96      102       85 1
      97       87       86 1
      98      103       86 1
      99      104       86 1
     100       88       87 1
     101      105       87 1
     102      106       87 1
     103       89       88 1
     104      107       88 1
     105      108       88 1
     106       90       89 1
     107      109       89 1
     108      110       89 1
     109       91       90 1
     110      111       90 1
     111      112       90 1
     112       92       91 1
     113      113       91 1
     114      114       91 1
     115       93       92 1
     116      115       92 1
     117      116       92 1
     118       94       93 1
     119      117       93 1
     120      118       93 1
     121       95       94 1
     122      119       94 1
     123      120       94 1
     124       96       95 1
     125      121       95 1
     126      122       95 1
     127       97       96 1
     128      123       96 1
     129      124       96 1
     130       98       97 1
     131      125       97 1
     132      126       97 1
     133       99       98 1
     134      127       98 1
     135      128       98 1
     136      100       99 1
     137      129       99 1
     138      130       99 1
     139      131      100 1
     140      132      100 1
     141      133      100 1
     142      135      134 1
     143      150      134 1
     144      151      134 1
     145      136      135 1
     146      152      135 1
     147      153      135 1
     148      137      136 1
     149      154      136 1
     150      155      136 1
     151      138      137 1
     152      156      137 1
     153      157      137 1
     154      139      138 1
     155      158      138 1
     156      159      138 1
     157      140      139 1
     158      160      139 1
     159      161      139 1
     160      141      140 1
     161      162      140 1
     162      163      140 1
     163      142      141 1
     164      164      141 1
     165      165      141 1
     166      143      142 1
     167      166      142 1
     168      167      142 1
     169      144      143 1
     170      168      143 1
     171      169      143 1
     172      145      144 1
     173      170      144 1
     174      171      144 1
     175      146      145 1
     176      172      145 1
     177      173      145 1
     178      147      146 1
     179      174      146 1
     180      175      146 1
     181      148      147 1
     182      176      147 1
     183      177      147 1
     184      149      148 1
     185      178      148 1
     186      179      148 1
     187      180      149 1
     188      181      149 1
     189      182      149 1
     190      184      183 1
     191      199      183 1
     192      200      183 1
     193      185      184 1
     194      201      184 1
     195      202      184 1
     196      186      185 1
     197      203      185 1
     198      204      185 1
     199      187      186 1
     200      205      186 1
     201      206      186 1
     202      188      187 1
     203      207      187 1
     204      208      187 1
     205      189      188 1
     206      209      188 1
     207      210      188 1
     208      190      189 1
     209      211      189 1
     210      212      189 1
     211      191      190 1
     212      213      190 1
     213      214      190 1
     214      192      191 1
     215      215      191 1
     216      216      191 1
     217      193      192 1
     218      217      192 1
     219      218      192 1
     220      194      193 1
     221      219      193 1
     222      220      193 1
     223      195      194 1
     224      221      194 1
     225      222      194 1
     226      196      195 1
     227      223      195 1
     228      224      195 1
     229      197      196 1
     230      225      196 1
     231      226      196 1
     232      198      197 1
     233      227      197 1
     234      228      197 1
     235      229      198 1
     236      230      198 1
     237      231      198 1
@<TRIPOS>SUBSTRUCTURE
       1 RES             1 RESIDUE    0 **** ROOT      0
