@<TRIPOS>MOLECULE
RES
231 237 1 0 1
SMALL
NO_CHARGES
@<TRIPOS>CRYSIN
   22.8790    32.6430    30.9200    90.0000    90.0000    90.0000  1  1
@<TRIPOS>ATOM
       1 C            2.0240    -1.1120     1.1890 C             1 RES     
       2 C            3.2750    -0.1760     1.0810 C             1 RES     
       3 C            2.6540     1.1650     0.6310 C             1 RES     
       4 C            1.5090     0.8190    -0.3270 C             1 RES     
       5 C            0.1980     1.5660     0.0330 C             1 RES     
       6 C           -0.9900     0.9190    -0.7120 C             1 RES     
       7 C           -1.0990    -0.5390    -0.3210 C             1 RES     
       8 C            0.1200    -1.3110    -0.7520 C             1 RES     
       9 C            1.3720    -0.6900    -0.1450 C             1 RES     
      10 C           -2.3490    -1.0230    -1.0060 C             1 RES     
      11 C           -3.1790     0.2400    -1.2040 C             1 RES     
      12 C           -2.4380     1.4300    -0.5130 C             1 RES     
      13 C           -4.5870    -0.0760    -0.8400 C             1 RES     
      14 C           -4.7530    -1.3030    -0.2470 C             1 RES     
      15 S           -3.2510    -2.2200     0.0330 S             1 RES     
      16 S            3.9170     2.2120    -0.1380 S             1 RES     
      17 C            4.9310     0.7680    -0.5790 C             1 RES     
      18 C            4.3340    -0.4580     0.0450 C             1 RES     
      19 H            0.2910     2.6420    -0.2180 H             1 RES     
      20 H            0.2090    -1.2540    -1.8590 H             1 RES     
      21 H           -5.4240     0.5790    -1.0280 H             1 RES     
      22 H           -5.7220    -1.6730     0.0590 H             1 RES     
      23 H            4.8840    -1.3880     0.0100 H             1 RES     
      24 C            3.9870     0.2710    -2.9340 C             1 RES     
      25 C            5.1950     0.7150    -2.0910 C             1 RES     
      26 C            6.4120    -0.1390    -2.4500 C             1 RES     
      27 N            7.6030     0.2670    -1.7340 N             1 RES     
      28 S            8.9700    -0.3090    -2.7170 S             1 RES     
      29 N            7.9670    -0.6340    -4.1480 N             1 RES     
      30 C            6.7310     0.0700    -3.9010 C             1 RES     
      31 C            5.5870    -0.4290    -4.7730 C             1 RES     
      32 C            4.3250     0.3680    -4.4300 C             1 RES     
      33 H            3.1080     0.9120    -2.7240 H             1 RES     
      34 H            5.8400    -0.2750    -5.8440 H             1 RES     
      35 H            3.4710     0.0100    -5.0410 H             1 RES     
      36 C            1.3820    -0.6150     2.5670 C             1 RES     
      37 C           -0.0070    -1.0500     3.0090 C             1 RES     
      38 C           -0.4430    -0.4750     4.3760 C             1 RES     
      39 C            0.2730    -0.9980     5.6460 C             1 RES     
      40 C            0.2730    -2.5370     5.7280 C             1 RES     
      41 C            0.5310    -3.1280     7.1290 C             1 RES     
      42 C           -0.7100    -3.0030     8.0330 C             1 RES     
      43 C           -0.5470    -3.7360     9.3790 C             1 RES     
      44 C           -1.8740    -3.6890    10.1580 C             1 RES     
      45 C           -1.8810    -4.2090    11.6140 C             1 RES     
      46 C           -1.7130    -5.7230    11.8560 C             1 RES     
      47 C           -0.2590    -6.2310    11.8240 C             1 RES     
      48 C           -0.0950    -7.7530    12.0320 C             1 RES     
      49 C           -0.2190    -8.3280    13.4680 C             1 RES     
      50 C           -1.5950    -8.3110    14.1560 C             1 RES     
      51 C           -2.6780    -9.0430    13.3630 C             1 RES     
      52 H            2.0920    -0.9010     3.3740 H             1 RES     
      53 H            1.3200     0.4930     2.5880 H             1 RES     
      54 H           -0.7320    -0.7060     2.2520 H             1 RES     
      55 H           -0.0730    -2.1200     3.1040 H             1 RES     
      56 H           -0.4010     0.6360     4.3560 H             1 RES     
      57 H           -1.5030    -0.7710     4.5000 H             1 RES     
      58 H            1.3200    -0.6270     5.7160 H             1 RES     
      59 H           -0.2890    -0.5690     6.5030 H             1 RES     
      60 H           -0.6970    -2.9450     5.3700 H             1 RES     
      61 H            1.0740    -2.8850     5.0480 H             1 RES     
      62 H            1.4340    -2.6750     7.5930 H             1 RES     
      63 H            0.7190    -4.2150     6.9900 H             1 RES     
      64 H           -0.9450    -1.9340     8.2210 H             1 RES     
      65 H           -1.5710    -3.4620     7.4970 H             1 RES     
      66 H           -0.2800    -4.7860     9.1670 H             1 RES     
      67 H            0.2630    -3.2500     9.9660 H             1 RES     
      68 H           -2.1750    -2.6200    10.2220 H             1 RES     
      69 H           -2.6550    -4.2260     9.5770 H             1 RES     
      70 H           -1.1720    -3.6350    12.2490 H             1 RES     
      71 H           -2.9060    -3.9700    11.9760 H             1 RES     
      72 H           -2.3590    -6.2890    11.1540 H             1 RES     
      73 H           -2.0930    -5.8930    12.8710 H             1 RES     
      74 H            0.1510    -6.0230    10.8240 H             1 RES     
      75 H            0.3690    -5.6810    12.5590 H             1 RES     
      76 H            0.9520    -7.9830    11.7340 H             1 RES     
      77 H           -0.7490    -8.3050    11.3330 H             1 RES     
      78 H            0.0920    -9.3940    13.4070 H             1 RES     
      79 H            0.5110    -7.8070    14.1240 H             1 RES     
      80 H           -1.4880    -8.8210    15.1380 H             1 RES     
      81 H           -1.9170    -7.2830    14.3870 H             1 RES     
      82 H           -2.3900   -10.1040    13.2130 H             1 RES     
      83 H           -3.6310    -9.0220    13.9330 H             1 RES     
      84 H           -2.8490    -8.5590    12.3800 H             1 RES     
      85 C            2.4000    -2.6570     1.2250 C             1 RES     
      86 C            1.4420    -3.7340     0.6020 C             1 RES     
      87 C            0.0360    -3.9280     1.2000 C             1 RES     
      88 C            0.0300    -4.5570     2.6070 C             1 RES     
      89 C            0.2680    -6.0680     2.5950 C             1 RES     
      90 C            0.3650    -6.6610     4.0130 C             1 RES     
      91 C           -0.8950    -6.4720     4.8730 C             1 RES     
      92 C           -0.7140    -7.1990     6.2110 C             1 RES     
      93 C           -1.9450    -7.0670     7.1070 C             1 RES     
      94 C           -1.8030    -7.6600     8.5270 C             1 RES     
      95 C           -1.6430    -9.1890     8.6560 C             1 RES     
      96 C           -0.1960    -9.7020     8.4800 C             1 RES     
      97 C           -0.0280   -11.2290     8.6050 C             1 RES     
      98 C            0.0660   -11.8250    10.0300 C             1 RES     
      99 C           -1.1670   -11.7360    10.9370 C             1 RES     
     100 C           -2.4130   -12.3730    10.3260 C             1 RES     
     101 H            2.7180    -2.9460     2.2480 H             1 RES     
     102 H            3.2950    -2.7910     0.5900 H             1 RES     
     103 H            1.3180    -3.4930    -0.4720 H             1 RES     
     104 H            1.9610    -4.7150     0.6120 H             1 RES     
     105 H           -0.4670    -2.9490     1.2030 H             1 RES     
     106 H           -0.5820    -4.5690     0.5390 H             1 RES     
     107 H            0.8010    -4.0770     3.2330 H             1 RES     
     108 H           -0.9750    -4.3810     3.0450 H             1 RES     
     109 H           -0.5560    -6.5650     2.0380 H             1 RES     
     110 H            1.2240    -6.2920     2.0820 H             1 RES     
     111 H            1.2340    -6.2070     4.5370 H             1 RES     
     112 H            0.5570    -7.7470     3.8950 H             1 RES     
     113 H           -1.0760    -5.3930     5.0700 H             1 RES     
     114 H           -1.7780    -6.8940     4.3440 H             1 RES     
     115 H           -0.5590    -8.2610     5.9630 H             1 RES     
     116 H            0.1710    -6.7820     6.7420 H             1 RES     
     117 H           -2.1580    -5.9820     7.2390 H             1 RES     
     118 H           -2.8170    -7.5290     6.5960 H             1 RES     
     119 H           -1.0010    -7.1470     9.0930 H             1 RES     
     120 H           -2.7570    -7.4110     9.0310 H             1 RES     
     121 H           -2.3510    -9.7020     7.9700 H             1 RES     
     122 H           -1.9600    -9.4270     9.6800 H             1 RES     
     123 H            0.1330    -9.4670     7.4610 H             1 RES     
     124 H            0.5020    -9.1860     9.1740 H             1 RES     
     125 H            0.9600   -11.4640     8.1510 H             1 RES     
     126 H           -0.7910   -11.7510     7.9900 H             1 RES     
     127 H            0.3090   -12.9040     9.9100 H             1 RES     
     128 H            0.9200   -11.3500    10.5600 H             1 RES     
     129 H           -0.9320   -12.2670    11.8850 H             1 RES     
     130 H           -1.3630   -10.6900    11.2160 H             1 RES     
     131 H           -2.2220   -13.4420    10.0920 H             1 RES     
     132 H           -3.2510   -12.3100    11.0500 H             1 RES     
     133 H           -2.7150   -11.8450     9.3990 H             1 RES     
     134 C           -2.6450     2.7670    -1.2940 C             1 RES     
     135 C           -4.1220     3.1650    -1.5600 C             1 RES     
     136 C           -4.6960     2.7860    -2.9410 C             1 RES     
     137 C           -4.2120     3.6540    -4.1200 C             1 RES     
     138 C           -4.4070     5.1530    -3.8200 C             1 RES     
     139 C           -4.2760     6.0800    -5.0260 C             1 RES     
     140 C           -5.4880     5.9870    -5.9690 C             1 RES     
     141 C           -5.4200     7.1080    -7.0080 C             1 RES     
     142 C           -6.6730     7.1690    -7.8790 C             1 RES     
     143 C           -6.6220     8.1890    -9.0410 C             1 RES     
     144 C           -6.4110     9.6790    -8.6830 C             1 RES     
     145 C           -4.9330    10.0770    -8.4430 C             1 RES     
     146 C           -4.7070    11.5550    -8.0660 C             1 RES     
     147 C           -4.6440    12.5790    -9.2210 C             1 RES     
     148 C           -5.9140    12.8220   -10.0460 C             1 RES     
     149 C           -7.0980    13.2720    -9.1930 C             1 RES     
     150 H           -2.1130     2.7620    -2.2700 H             1 RES     
     151 H           -2.1580     3.5610    -0.6850 H             1 RES     
     152 H           -4.7900     2.7020    -0.8300 H             1 RES     
     153 H           -4.2470     4.2500    -1.3920 H             1 RES     
     154 H           -4.5380     1.7100    -3.1610 H             1 RES     
     155 H           -5.7950     2.9490    -2.8780 H             1 RES     
     156 H           -3.1450     3.4630    -4.3630 H             1 RES     
     157 H           -4.8230     3.3540    -4.9970 H             1 RES     
     158 H           -5.4070     5.3320    -3.3650 H             1 RES     
     159 H           -3.6300     5.4550    -3.0870 H             1 RES     
     160 H           -3.3190     5.9050    -5.5650 H             1 RES     
     161 H           -4.2560     7.1140    -4.6130 H             1 RES     
     162 H           -5.5300     4.9970    -6.4700 H             1 RES     
     163 H           -6.4170     6.1270    -5.3730 H             1 RES     
     164 H           -5.3680     8.0500    -6.4320 H             1 RES     
     165 H           -4.5160     6.9690    -7.6410 H             1 RES     
     166 H           -6.8410     6.1690    -8.3360 H             1 RES     
     167 H           -7.5460     7.3980    -7.2280 H             1 RES     
     168 H           -5.8720     7.8850    -9.8020 H             1 RES     
     169 H           -7.6230     8.1110    -9.5210 H             1 RES     
     170 H           -7.0570     9.9540    -7.8200 H             1 RES     
     171 H           -6.7690    10.2410    -9.5560 H             1 RES     
     172 H           -4.5460     9.5150    -7.5870 H             1 RES     
     173 H           -4.2960     9.8060    -9.3120 H             1 RES     
     174 H           -3.6920    11.6020    -7.6110 H             1 RES     
     175 H           -5.4200    11.8640    -7.2720 H             1 RES     
     176 H           -4.3500    13.5530    -8.7700 H             1 RES     
     177 H           -3.8300    12.2780    -9.9170 H             1 RES     
     178 H           -5.6910    13.6230   -10.7820 H             1 RES     
     179 H           -6.1760    11.9280   -10.6380 H             1 RES     
     180 H           -6.8430    14.2010    -8.6400 H             1 RES     
     181 H           -7.9690    13.4760    -9.8500 H             1 RES     
     182 H           -7.3880    12.4840    -8.4680 H             1 RES     
     183 C           -2.6900     1.5870     1.0500 C             1 RES     
     184 C           -4.0750     2.0860     1.5080 C             1 RES     
     185 C           -4.2710     2.2450     3.0200 C             1 RES     
     186 C           -4.0290     1.0050     3.8900 C             1 RES     
     187 C           -4.6880    -0.2820     3.3600 C             1 RES     
     188 C           -4.6780    -1.4140     4.4010 C             1 RES     
     189 C           -5.7990    -1.2060     5.4310 C             1 RES     
     190 C           -5.8280    -2.3050     6.4980 C             1 RES     
     191 C           -7.0980    -2.1600     7.3490 C             1 RES     
     192 C           -7.1800    -2.9890     8.6470 C             1 RES     
     193 C           -7.1470    -4.5270     8.5490 C             1 RES     
     194 C           -5.7350    -5.1020     8.3460 C             1 RES     
     195 C           -5.6430    -6.6390     8.3510 C             1 RES     
     196 C           -5.5970    -7.3400     9.7320 C             1 RES     
     197 C           -6.8880    -7.4020    10.5600 C             1 RES     
     198 C           -8.0230    -8.1080     9.8210 C             1 RES     
     199 H           -2.4920     0.6210     1.5430 H             1 RES     
     200 H           -1.9550     2.3160     1.4530 H             1 RES     
     201 H           -4.2500     3.1020     1.1140 H             1 RES     
     202 H           -4.8660     1.4000     1.1530 H             1 RES     
     203 H           -3.6230     3.0660     3.4010 H             1 RES     
     204 H           -5.3280     2.5610     3.1630 H             1 RES     
     205 H           -2.9400     0.8300     3.9730 H             1 RES     
     206 H           -4.4000     1.2660     4.9010 H             1 RES     
     207 H           -5.7340    -0.1040     3.0300 H             1 RES     
     208 H           -4.1090    -0.6150     2.4770 H             1 RES     
     209 H           -3.6800    -1.4960     4.8820 H             1 RES     
     210 H           -4.8880    -2.3730     3.8790 H             1 RES     
     211 H           -5.6960    -0.2270     5.9420 H             1 RES     
     212 H           -6.7640    -1.2140     4.8760 H             1 RES     
     213 H           -5.8500    -3.2840     5.9830 H             1 RES     
     214 H           -4.9150    -2.2150     7.1270 H             1 RES     
     215 H           -7.1780    -1.0980     7.6740 H             1 RES     
     216 H           -7.9780    -2.3840     6.7070 H             1 RES     
     217 H           -6.4050    -2.6510     9.3680 H             1 RES     
     218 H           -8.1690    -2.7230     9.0840 H             1 RES     
     219 H           -7.8520    -4.8860     7.7680 H             1 RES     
     220 H           -7.5180    -4.8800     9.5200 H             1 RES     
     221 H           -5.0270    -4.6930     9.0980 H             1 RES     
     222 H           -5.3790    -4.7900     7.3540 H             1 RES     
     223 H           -4.6580    -6.8620     7.9020 H             1 RES     
     224 H           -6.3950    -7.0910     7.6700 H             1 RES     
     225 H           -5.2870    -8.3930     9.5470 H             1 RES     
     226 H           -4.8000    -6.8680    10.3480 H             1 RES     
     227 H           -6.6680    -7.9800    11.4840 H             1 RES     
     228 H           -7.2070    -6.4030    10.8970 H             1 RES     
     229 H           -7.7110    -9.1350     9.5320 H             1 RES     
     230 H           -8.9090    -8.1810    10.4850 H             1 RES     
     231 H           -8.3150    -7.5430     8.9120 H             1 RES     
@<TRIPOS>BOND
       1        2        1 1
       2        9        1 1
       3       36        1 1
       4       85        1 1
       5        3        2 1
       6       18        2 1
       7        4        3 1
       8       16        3 1
       9        5        4 1
      10        9        4 1
      11        6        5 1
      12       19        5 1
      13        7        6 1
      14       12        6 1
      15        8        7 1
      16       10        7 1
      17        9        8 1
      18       20        8 1
      19       11       10 1
      20       15       10 1
      21       12       11 1
      22       13       11 1
      23      134       12 1
      24      183       12 1
      25       14       13 1
      26       21       13 1
      27       15       14 1
      28       22       14 1
      29       17       16 1
      30       18       17 1
      31       25       17 1
      32       23       18 1
      33       25       24 1
      34       32       24 1
      35       33       24 1
      36       26       25 1
      37       27       26 1
      38       30       26 1
      39       28       27 1
      40       29       28 1
      41       30       29 1
      42       31       30 1
      43       32       31 1
      44       34       31 1
      45       35       32 1
      46       37       36 1
      47       52       36 1
      48       53       36 1
      49       38       37 1
      50       54       37 1
      51       55       37 1
      52       39       38 1
      53       56       38 1
      54       57       38 1
      55       40       39 1
      56       58       39 1
      57       59       39 1
      58       41       40 1
      59       60       40 1
      60       61       40 1
      61       42       41 1
      62       62       41 1
      63       63       41 1
      64       43       42 1
      65       64       42 1
      66       65       42 1
      67       44       43 1
      68       66       43 1
      69       67       43 1
      70       45       44 1
      71       68       44 1
      72       69       44 1
      73       46       45 1
      74       70       45 1
      75       71       45 1
      76       47       46 1
      77       72       46 1
      78       73       46 1
      79       48       47 1
      80       74       47 1
      81       75       47 1
      82       49       48 1
      83       76       48 1
      84       77       48 1
      85       50       49 1
      86       78       49 1
      87       79       49 1
      88       51       50 1
      89       80       50 1
      90       81       50 1
      91       82       51 1
      92       83       51 1
      93       84       51 1
      94       86       85 1
      95      101       85 1
      96      102       85 1
      97       87       86 1
      98      103       86 1
      99      104       86 1
     100       88       87 1
     101      105       87 1
     102      106       87 1
     103       89       88 1
     104      107       88 1
     105      108       88 1
     106       90       89 1
     107      109       89 1
     108      110       89 1
     109       91       90 1
     110      111       90 1
     111      112       90 1
     112       92       91 1
     113      113       91 1
     114      114       91 1
     115       93       92 1
     116      115       92 1
     117      116       92 1
     118       94       93 1
     119      117       93 1
     120      118       93 1
     121       95       94 1
     122      119       94 1
     123      120       94 1
     124       96       95 1
     125      121       95 1
     126      122       95 1
     127       97       96 1
     128      123       96 1
     129      124       96 1
     130       98       97 1
     131      125       97 1
     132      126       97 1
     133       99       98 1
     134      127       98 1
     135      128       98 1
     136      100       99 1
     137      129       99 1
     138      130       99 1
     139      131      100 1
     140      132      100 1
     141      133      100 1
     142      135      134 1
     143      150      134 1
     144      151      134 1
     145      136      135 1
     146      152      135 1
     147      153      135 1
     148      137      136 1
     149      154      136 1
     150      155      136 1
     151      138      137 1
     152      156      137 1
     153      157      137 1
     154      139      138 1
     155      158      138 1
     156      159      138 1
     157      140      139 1
     158      160      139 1
     159      161      139 1
     160      141      140 1
     161      162      140 1
     162      163      140 1
     163      142      141 1
     164      164      141 1
     165      165      141 1
     166      143      142 1
     167      166      142 1
     168      167      142 1
     169      144      143 1
     170      168      143 1
     171      169      143 1
     172      145      144 1
     173      170      144 1
     174      171      144 1
     175      146      145 1
     176      172      145 1
     177      173      145 1
     178      147      146 1
     179      174      146 1
     180      175      146 1
     181      148      147 1
     182      176      147 1
     183      177      147 1
     184      149      148 1
     185      178      148 1
     186      179      148 1
     187      180      149 1
     188      181      149 1
     189      182      149 1
     190      184      183 1
     191      199      183 1
     192      200      183 1
     193      185      184 1
     194      201      184 1
     195      202      184 1
     196      186      185 1
     197      203      185 1
     198      204      185 1
     199      187      186 1
     200      205      186 1
     201      206      186 1
     202      188      187 1
     203      207      187 1
     204      208      187 1
     205      189      188 1
     206      209      188 1
     207      210      188 1
     208      190      189 1
     209      211      189 1
     210      212      189 1
     211      191      190 1
     212      213      190 1
     213      214      190 1
     214      192      191 1
     215      215      191 1
     216      216      191 1
     217      193      192 1
     218      217      192 1
     219      218      192 1
     220      194      193 1
     221      219      193 1
     222      220      193 1
     223      195      194 1
     224      221      194 1
     225      222      194 1
     226      196      195 1
     227      223      195 1
     228      224      195 1
     229      197      196 1
     230      225      196 1
     231      226      196 1
     232      198      197 1
     233      227      197 1
     234      228      197 1
     235      229      198 1
     236      230      198 1
     237      231      198 1
@<TRIPOS>SUBSTRUCTURE
       1 RES             1 RESIDUE    0 **** ROOT      0
