@<TRIPOS>MOLECULE
UNL
79 80 1 0 1
SMALL
NO_CHARGES
@<TRIPOS>CRYSIN
   74.7790    69.3020    72.2690    90.0000    90.0000    90.0000  1  1
@<TRIPOS>ATOM
       1 C0          34.1660    30.6710    30.2650 C0            1 UNL     
       2 C0          32.7790    30.5390    29.6430 C0            1 UNL     
       3 C0          31.8530    29.6930    30.5260 C0            1 UNL     
       4 C0          30.4650    29.5640    29.8890 C0            1 UNL     
       5 C0          29.5330    28.7060    30.7580 C0            1 UNL     
       6 C0          28.1480    28.5330    30.1160 C0            1 UNL     
       7 C1          27.4200    29.8420    29.9670 C1            1 UNL     
       8 C1          27.0550    30.6420    31.0450 C1            1 UNL     
       9 S2          26.2700    32.0030    30.4490 S2            1 UNL     
      10 C1          26.3840    31.5920    28.8230 C1            1 UNL     
      11 C1          27.0410    30.3740    28.7250 C1            1 UNL     
      12 C0         -25.8380   -29.4800   -29.4990 C0            1 UNL     
      13 C0         -27.2550   -29.7010   -30.0140 C0            1 UNL     
      14 C0         -28.1370   -30.3900   -28.9630 C0            1 UNL     
      15 C0         -29.5460   -30.6270   -29.5170 C0            1 UNL     
      16 C0         -30.4870   -31.2500   -28.4640 C0            1 UNL     
      17 C0         -31.8760   -31.5530   -29.0560 C0            1 UNL     
      18 C1         -32.5010   -30.3090   -29.6220 C1            1 UNL     
      19 C1         -32.9060   -29.2190   -28.8610 C1            1 UNL     
      20 S2         -33.4510   -28.0280   -29.9150 S2            1 UNL     
      21 C1         -33.1490   -28.8680   -31.3470 C1            1 UNL     
      22 C1         -32.6650   -30.1260   -31.0000 C1            1 UNL     
      23 C0         -26.0770   -27.9300   -33.4720 C0            1 UNL     
      24 C0         -27.4060   -27.9410   -34.2240 C0            1 UNL     
      25 C0         -28.3900   -28.9130   -33.5700 C0            1 UNL     
      26 C0         -29.7530   -28.9180   -34.2780 C0            1 UNL     
      27 C0         -30.6670   -29.9590   -33.6200 C0            1 UNL     
      28 C0         -32.0830   -30.0110   -34.2310 C0            1 UNL     
      29 C1         -32.8940   -28.7650   -33.9630 C1            1 UNL     
      30 C1         -33.3350   -28.2930   -32.7050 C1            1 UNL     
      31 S2         -34.1470   -26.8400   -32.9630 S2            1 UNL     
      32 C1         -33.9890   -26.8010   -34.6290 C1            1 UNL     
      33 C1         -33.2790   -27.9230   -35.0230 C1            1 UNL     
      34 H3          34.0790    30.6620    31.3610 H3            1 UNL     
      35 H3          34.7950    29.8280    29.9410 H3            1 UNL     
      36 H3          34.6250    31.6160    29.9410 H3            1 UNL     
      37 H3          32.3430    31.5410    29.5230 H3            1 UNL     
      38 H3          32.8810    30.0400    28.6680 H3            1 UNL     
      39 H3          32.2890    28.6900    30.6490 H3            1 UNL     
      40 H3          31.7490    30.1870    31.5030 H3            1 UNL     
      41 H3          30.0280    30.5670    29.7760 H3            1 UNL     
      42 H3          30.5750    29.0760    28.9100 H3            1 UNL     
      43 H3          29.9880    27.7130    30.8950 H3            1 UNL     
      44 H3          29.3990    29.2170    31.7230 H3            1 UNL     
      45 H3          28.2730    28.0820    29.1200 H3            1 UNL     
      46 H3          27.5490    27.8880    30.7760 H3            1 UNL     
      47 H4          26.3790    30.0840    31.7100 H4            1 UNL     
      48 H4          25.3760    31.5070    28.3910 H4            1 UNL     
      49 H5          27.9460    30.5150    28.1150 H5            1 UNL     
      50 H3         -25.8430   -29.4810   -28.3990 H3            1 UNL     
      51 H3         -25.1860   -30.2880   -29.8630 H3            1 UNL     
      52 H3         -25.4620   -28.5130   -29.8630 H3            1 UNL     
      53 H3         -27.6980   -28.7270   -30.2690 H3            1 UNL     
      54 H3         -27.2020   -30.3530   -30.8990 H3            1 UNL     
      55 H3         -27.6880   -31.3570   -28.6910 H3            1 UNL     
      56 H3         -28.2080   -29.7420   -28.0770 H3            1 UNL     
      57 H3         -29.9660   -29.6640   -29.8420 H3            1 UNL     
      58 H3         -29.4650   -31.3320   -30.3580 H3            1 UNL     
      59 H3         -30.0430   -32.1880   -28.0980 H3            1 UNL     
      60 H3         -30.6120   -30.5290   -27.6430 H3            1 UNL     
      61 H3         -31.7710   -32.2990   -29.8580 H3            1 UNL     
      62 H3         -32.5240   -31.9380   -28.2550 H3            1 UNL     
      63 H4         -33.7180   -29.5180   -28.1830 H4            1 UNL     
      64 H5         -31.6890   -30.2670   -31.4860 H5            1 UNL     
      65 H3         -26.2680   -27.9320   -32.3890 H3            1 UNL     
      66 H3         -25.4950   -28.8240   -33.7430 H3            1 UNL     
      67 H3         -25.5090   -27.0280   -33.7430 H3            1 UNL     
      68 H3         -27.8360   -26.9280   -34.2110 H3            1 UNL     
      69 H3         -27.2240   -28.2650   -35.2590 H3            1 UNL     
      70 H3         -27.9660   -29.9270   -33.6090 H3            1 UNL     
      71 H3         -28.5490   -28.5870   -32.5310 H3            1 UNL     
      72 H3         -30.2120   -27.9220   -34.1960 H3            1 UNL     
      73 H3         -29.6130   -29.1720   -35.3390 H3            1 UNL     
      74 H3         -30.2020   -30.9500   -33.7320 H3            1 UNL     
      75 H3         -30.7810   -29.6670   -32.5660 H3            1 UNL     
      76 H3         -31.9890   -30.1410   -35.3190 H3            1 UNL     
      77 H3         -32.6110   -30.8530   -33.7580 H3            1 UNL     
      78 H4         -34.9840   -26.8070   -35.0980 H4            1 UNL     
      79 H5         -32.3700   -27.5900   -35.5460 H5            1 UNL     
@<TRIPOS>BOND
       1        2        1 1
       2       34        1 1
       3       35        1 1
       4       36        1 1
       5        3        2 1
       6       37        2 1
       7       38        2 1
       8        4        3 1
       9       39        3 1
      10       40        3 1
      11        5        4 1
      12       41        4 1
      13       42        4 1
      14        6        5 1
      15       43        5 1
      16       44        5 1
      17        7        6 1
      18       45        6 1
      19       46        6 1
      20        8        7 1
      21       11        7 1
      22        9        8 1
      23       47        8 1
      24       10        9 1
      25       11       10 1
      26       48       10 1
      27       49       11 1
      28       13       12 1
      29       50       12 1
      30       51       12 1
      31       52       12 1
      32       14       13 1
      33       53       13 1
      34       54       13 1
      35       15       14 1
      36       55       14 1
      37       56       14 1
      38       16       15 1
      39       57       15 1
      40       58       15 1
      41       17       16 1
      42       59       16 1
      43       60       16 1
      44       18       17 1
      45       61       17 1
      46       62       17 1
      47       19       18 1
      48       22       18 1
      49       20       19 1
      50       63       19 1
      51       21       20 1
      52       22       21 1
      53       30       21 1
      54       64       22 1
      55       24       23 1
      56       65       23 1
      57       66       23 1
      58       67       23 1
      59       25       24 1
      60       68       24 1
      61       69       24 1
      62       26       25 1
      63       70       25 1
      64       71       25 1
      65       27       26 1
      66       72       26 1
      67       73       26 1
      68       28       27 1
      69       74       27 1
      70       75       27 1
      71       29       28 1
      72       76       28 1
      73       77       28 1
      74       30       29 1
      75       33       29 1
      76       31       30 1
      77       32       31 1
      78       33       32 1
      79       78       32 1
      80       79       33 1
@<TRIPOS>SUBSTRUCTURE
       1 UNL             1 RESIDUE    0 **** ROOT      0
