@<TRIPOS>MOLECULE
Polymer
27 27 1 0 1
SMALL
NO_CHARGES
@<TRIPOS>CRYSIN
   13.8348     9.4474     9.3093    90.0000    90.0000    90.0000  1  1
@<TRIPOS>ATOM
       1 C            4.1652     0.6916     0.2676 C             1 Polymer 
       2 C            2.7795     0.5570    -0.3564 C             1 Polymer 
       3 C            1.8568    -0.2968     0.5214 C             1 Polymer 
       4 C            0.4689    -0.4306    -0.1152 C             1 Polymer 
       5 C           -0.4573    -1.2961     0.7533 C             1 Polymer 
       6 C           -1.8433    -1.4765     0.1146 C             1 Polymer 
       7 C           -2.5801    -0.1728    -0.0319 C             1 Polymer 
       8 C           -2.9414     0.6284     1.0472 C             1 Polymer 
       9 S           -3.7409     1.9819     0.4537 S             1 Polymer 
      10 C           -3.6384     1.5669    -1.1713 C             1 Polymer 
      11 C           -2.9730     0.3535    -1.2725 C             1 Polymer 
      12 H            4.8102     1.3120    -0.3898 H             1 Polymer 
      13 H            4.6342    -0.3086     0.3850 H             1 Polymer 
      14 H            4.0946     1.1813     1.2622 H             1 Polymer 
      15 H            2.8824     0.0856    -1.3583 H             1 Polymer 
      16 H            2.3422     1.5715    -0.4827 H             1 Polymer 
      17 H            2.3027    -1.3083     0.6462 H             1 Polymer 
      18 H            1.7579     0.1774     1.5229 H             1 Polymer 
      19 H            0.0282     0.5829    -0.2382 H             1 Polymer 
      20 H            0.5703    -0.9004    -1.1184 H             1 Polymer 
      21 H            0.0006    -2.3023     0.8741 H             1 Polymer 
      22 H           -0.5646    -0.8422     1.7626 H             1 Polymer 
      23 H           -2.4524    -2.1554     0.7493 H             1 Polymer 
      24 H           -1.7182    -1.9602    -0.8789 H             1 Polymer 
      25 H           -2.7767    -0.1327    -2.2192 H             1 Polymer 
      26 H           -2.7448     0.4182     2.0901 H             1 Polymer 
      27 H           -4.0246     2.1452    -1.9998 H             1 Polymer 
@<TRIPOS>BOND
       1        2        1 1
       2       12        1 1
       3       13        1 1
       4       14        1 1
       5        3        2 1
       6       15        2 1
       7       16        2 1
       8        4        3 1
       9       17        3 1
      10       18        3 1
      11        5        4 1
      12       19        4 1
      13       20        4 1
      14        6        5 1
      15       21        5 1
      16       22        5 1
      17        7        6 1
      18       23        6 1
      19       24        6 1
      20        8        7 1
      21       11        7 1
      22        9        8 1
      23       26        8 1
      24       10        9 1
      25       11       10 1
      26       27       10 1
      27       25       11 1
@<TRIPOS>SUBSTRUCTURE
       1 Polymer         1 RESIDUE    0 **** ROOT      0
