@<TRIPOS>MOLECULE
Polymer
52 53 1 0 1
SMALL
NO_CHARGES
@<TRIPOS>CRYSIN
   14.1433    11.2720    13.4873    90.0000    90.0000    90.0000  1  1
@<TRIPOS>ATOM
       1 C            4.1660     0.4820     0.5664 C             1 Polymer 
       2 C            2.7605     0.2353     0.0304 C             1 Polymer 
       3 C            1.8560    -0.4057     1.0928 C             1 Polymer 
       4 C            0.4590    -0.6598     0.5192 C             1 Polymer 
       5 C           -0.5055    -1.2454     1.5716 C             1 Polymer 
       6 C           -1.8881    -1.5427     0.9614 C             1 Polymer 
       7 C           -2.4949    -0.2969     0.3785 C             1 Polymer 
       8 C           -2.8948     0.7998     1.1321 C             1 Polymer 
       9 S           -3.4269     1.9885     0.0719 S             1 Polymer 
      10 C           -3.1275     1.1389    -1.3555 C             1 Polymer 
      11 C           -2.6501    -0.1198    -1.0015 C             1 Polymer 
      12 H            4.7858     0.9542    -0.2253 H             1 Polymer 
      13 H            4.6381    -0.4783     0.8635 H             1 Polymer 
      14 H            4.1306     1.1619     1.4440 H             1 Polymer 
      15 H            2.8285    -0.4295    -0.8587 H             1 Polymer 
      16 H            2.3263     1.2090    -0.2841 H             1 Polymer 
      17 H            2.2951    -1.3708     1.4284 H             1 Polymer 
      18 H            1.7797     0.2790     1.9659 H             1 Polymer 
      19 H            0.0542     0.3064     0.1467 H             1 Polymer 
      20 H            0.5421    -1.3630    -0.3391 H             1 Polymer 
      21 H           -0.0862    -2.1956     1.9677 H             1 Polymer 
      22 H           -0.6125    -0.5311     2.4168 H             1 Polymer 
      23 H           -2.5723    -1.9753     1.7221 H             1 Polymer 
      24 H           -1.7461    -2.3021     0.1609 H             1 Polymer 
      25 H           -2.3755    -0.8944    -1.6941 H             1 Polymer 
      26 C            3.9152     2.1093    -3.5405 C             1 Polymer 
      27 C            2.5631     2.1170    -4.2516 C             1 Polymer 
      28 C            1.6161     1.0912    -3.6244 C             1 Polymer 
      29 C            0.2354     1.1003    -4.2965 C             1 Polymer 
      30 C           -0.6572     0.0309    -3.6547 C             1 Polymer 
      31 C           -2.0811    -0.0173    -4.2469 C             1 Polymer 
      32 C           -2.8854     1.2329    -3.9733 C             1 Polymer 
      33 C           -3.3149     1.7098    -2.7139 C             1 Polymer 
      34 S           -4.1236     3.1661    -2.9710 S             1 Polymer 
      35 C           -3.9773     3.1990    -4.6382 C             1 Polymer 
      36 C           -3.2751     2.0732    -5.0335 C             1 Polymer 
      37 H            4.5909     2.8520    -4.0141 H             1 Polymer 
      38 H            4.3848     1.1047    -3.6108 H             1 Polymer 
      39 H            3.7886     2.3757    -2.4694 H             1 Polymer 
      40 H            2.7162     1.8732    -5.3253 H             1 Polymer 
      41 H            2.1222     3.1341    -4.1730 H             1 Polymer 
      42 H            2.0679     0.0783    -3.7168 H             1 Polymer 
      43 H            1.4878     1.3274    -2.5461 H             1 Polymer 
      44 H           -0.2236     2.1047    -4.1683 H             1 Polymer 
      45 H            0.3408     0.8870    -5.3827 H             1 Polymer 
      46 H           -0.1843    -0.9625    -3.8165 H             1 Polymer 
      47 H           -0.6831     0.2213    -2.5678 H             1 Polymer 
      48 H           -2.6423    -0.8895    -3.8570 H             1 Polymer 
      49 H           -1.9795    -0.1784    -5.3425 H             1 Polymer 
      50 H           -3.0393     1.8730    -6.0705 H             1 Polymer 
      51 H           -2.8537     0.8812     2.2100 H             1 Polymer 
      52 H           -4.3575     3.9698    -5.2946 H             1 Polymer 
@<TRIPOS>BOND
       1        2        1 1
       2       12        1 1
       3       13        1 1
       4       14        1 1
       5        3        2 1
       6       15        2 1
       7       16        2 1
       8        4        3 1
       9       17        3 1
      10       18        3 1
      11        5        4 1
      12       19        4 1
      13       20        4 1
      14        6        5 1
      15       21        5 1
      16       22        5 1
      17        7        6 1
      18       23        6 1
      19       24        6 1
      20        8        7 1
      21       11        7 1
      22        9        8 1
      23       51        8 1
      24       10        9 1
      25       11       10 1
      26       33       10 1
      27       25       11 1
      28       27       26 1
      29       37       26 1
      30       38       26 1
      31       39       26 1
      32       28       27 1
      33       40       27 1
      34       41       27 1
      35       29       28 1
      36       42       28 1
      37       43       28 1
      38       30       29 1
      39       44       29 1
      40       45       29 1
      41       31       30 1
      42       46       30 1
      43       47       30 1
      44       32       31 1
      45       48       31 1
      46       49       31 1
      47       33       32 1
      48       36       32 1
      49       34       33 1
      50       35       34 1
      51       36       35 1
      52       52       35 1
      53       50       36 1
@<TRIPOS>SUBSTRUCTURE
       1 Polymer         1 RESIDUE    0 **** ROOT      0
