@<TRIPOS>MOLECULE
Compound
52 53 1 0 1
SMALL
NO_CHARGES
@<TRIPOS>CRYSIN
   14.8150    10.4940    12.9400    90.0000    90.0000    90.0000  1  1
@<TRIPOS>ATOM
       1 C0           4.1660     0.4820     0.5660 C0            1 Compound
       2 C0           2.7600     0.2350     0.0300 C0            1 Compound
       3 C0           1.8560    -0.4060     1.0930 C0            1 Compound
       4 C0           0.4590    -0.6600     0.5190 C0            1 Compound
       5 C0          -0.5050    -1.2450     1.5720 C0            1 Compound
       6 C0          -1.8880    -1.5430     0.9610 C0            1 Compound
       7 C1          -2.4950    -0.2970     0.3790 C1            1 Compound
       8 C1          -2.8950     0.8000     1.1320 C1            1 Compound
       9 S2          -3.4270     1.9880     0.0720 S2            1 Compound
      10 C1          -3.1270     1.1390    -1.3550 C1            1 Compound
      11 C1          -2.6500    -0.1200    -1.0020 C1            1 Compound
      12 C0           3.9150     2.1090    -3.5410 C0            1 Compound
      13 C0           2.5630     2.1170    -4.2520 C0            1 Compound
      14 C0           1.6160     1.0910    -3.6240 C0            1 Compound
      15 C0           0.2350     1.1000    -4.2960 C0            1 Compound
      16 C0          -0.6570     0.0310    -3.6550 C0            1 Compound
      17 C0          -2.0810    -0.0170    -4.2470 C0            1 Compound
      18 C1          -2.8850     1.2330    -3.9730 C1            1 Compound
      19 C1          -3.3150     1.7100    -2.7140 C1            1 Compound
      20 S2          -4.1240     3.1660    -2.9710 S2            1 Compound
      21 C1          -3.9770     3.1990    -4.6380 C1            1 Compound
      22 C1          -3.2750     2.0730    -5.0340 C1            1 Compound
      23 H3           4.1450     0.4780     1.6660 H3            1 Compound
      24 H3           4.8390    -0.3120     0.2100 H3            1 Compound
      25 H3           4.5280     1.4570     0.2100 H3            1 Compound
      26 H3           2.3230     1.1960    -0.2790 H3            1 Compound
      27 H3           2.8330    -0.4560    -0.8220 H3            1 Compound
      28 H3           2.2950    -1.3610     1.4150 H3            1 Compound
      29 H3           1.7710     0.2780     1.9500 H3            1 Compound
      30 H3           0.0480     0.2920     0.1530 H3            1 Compound
      31 H3           0.5560    -1.3930    -0.2950 H3            1 Compound
      32 H3          -0.0800    -2.1800     1.9670 H3            1 Compound
      33 H3          -0.6330    -0.5050     2.3750 H3            1 Compound
      34 H3          -1.7770    -2.2950     0.1670 H3            1 Compound
      35 H3          -2.5500    -1.9180     1.7560 H3            1 Compound
      36 H4          -3.7120     0.5100     1.8090 H4            1 Compound
      37 H5          -1.6720    -0.2680    -1.4820 H5            1 Compound
      38 H3           3.7570     2.1100    -2.4520 H3            1 Compound
      39 H3           4.4760     1.2080    -3.8290 H3            1 Compound
      40 H3           4.4860     3.0040    -3.8290 H3            1 Compound
      41 H3           2.1170     3.1190    -4.1680 H3            1 Compound
      42 H3           2.7180     1.8550    -5.3090 H3            1 Compound
      43 H3           2.0570     0.0890    -3.7310 H3            1 Compound
      44 H3           1.4810     1.3550    -2.5650 H3            1 Compound
      45 H3          -0.2280     2.0900    -4.1670 H3            1 Compound
      46 H3           0.3500     0.8840    -5.3690 H3            1 Compound
      47 H3          -0.1850    -0.9520    -3.8030 H3            1 Compound
      48 H3          -0.7580     0.2890    -2.5900 H3            1 Compound
      49 H3          -2.0020    -0.1500    -5.3360 H3            1 Compound
      50 H3          -2.6060    -0.8550    -3.7640 H3            1 Compound
      51 H4          -4.9760     3.1960    -5.1000 H4            1 Compound
      52 H5          -2.3690     2.4010    -5.5650 H5            1 Compound
@<TRIPOS>BOND
       1        2        1 1
       2       23        1 1
       3       24        1 1
       4       25        1 1
       5        3        2 1
       6       26        2 1
       7       27        2 1
       8        4        3 1
       9       28        3 1
      10       29        3 1
      11        5        4 1
      12       30        4 1
      13       31        4 1
      14        6        5 1
      15       32        5 1
      16       33        5 1
      17        7        6 1
      18       34        6 1
      19       35        6 1
      20        8        7 1
      21       11        7 1
      22        9        8 1
      23       36        8 1
      24       10        9 1
      25       11       10 1
      26       19       10 1
      27       37       11 1
      28       13       12 1
      29       38       12 1
      30       39       12 1
      31       40       12 1
      32       14       13 1
      33       41       13 1
      34       42       13 1
      35       15       14 1
      36       43       14 1
      37       44       14 1
      38       16       15 1
      39       45       15 1
      40       46       15 1
      41       17       16 1
      42       47       16 1
      43       48       16 1
      44       18       17 1
      45       49       17 1
      46       50       17 1
      47       19       18 1
      48       22       18 1
      49       20       19 1
      50       21       20 1
      51       22       21 1
      52       51       21 1
      53       52       22 1
@<TRIPOS>SUBSTRUCTURE
       1 Compound        1 RESIDUE    0 **** ROOT      0
