@<TRIPOS>MOLECULE
Polymer
27 27 1 0 1
SMALL
NO_CHARGES
@<TRIPOS>CRYSIN
   13.7635     9.4609     9.3122    90.0000    90.0000    90.0000 1 1
@<TRIPOS>ATOM
       1 C            4.1651     0.6768     0.2260 C             1 Polymer 
       2 C            2.7705     0.5381    -0.3760 C             1 Polymer 
       3 C            1.8538    -0.2961     0.5274 C             1 Polymer 
       4 C            0.4610    -0.4340    -0.0968 C             1 Polymer 
       5 C           -0.4664    -1.2861     0.7838 C             1 Polymer 
       6 C           -1.8490    -1.4720     0.1384 C             1 Polymer 
       7 C           -2.5797    -0.1677    -0.0212 C             1 Polymer 
       8 C           -2.9700     0.6278     1.0532 C             1 Polymer 
       9 S           -3.7492     1.9875     0.4468 S             1 Polymer 
      10 C           -3.6010     1.5833    -1.1781 C             1 Polymer 
      11 C           -2.9365     0.3688    -1.2686 C             1 Polymer 
      12 H            4.8033     1.2812    -0.4525 H             1 Polymer 
      13 H            4.6306    -0.3238     0.3542 H             1 Polymer 
      14 H            4.1111     1.1850     1.2120 H             1 Polymer 
      15 H            2.8584     0.0486    -1.3708 H             1 Polymer 
      16 H            2.3364     1.5525    -0.5153 H             1 Polymer 
      17 H            2.2965    -1.3070     0.6652 H             1 Polymer 
      18 H            1.7657     0.1959     1.5216 H             1 Polymer 
      19 H            0.0237     0.5793    -0.2321 H             1 Polymer 
      20 H            0.5571    -0.9174    -1.0947 H             1 Polymer 
      21 H           -0.0105    -2.2914     0.9173 H             1 Polymer 
      22 H           -0.5763    -0.8199     1.7869 H             1 Polymer 
      23 H           -2.4656    -2.1483     0.7689 H             1 Polymer 
      24 H           -1.7142    -1.9587    -0.8525 H             1 Polymer 
      25 H           -2.7134    -0.1112    -2.2122 H             1 Polymer 
      26 H           -2.8031     0.4097     2.1000 H             1 Polymer 
      27 H           -3.9602     2.1696    -2.0134 H             1 Polymer 
@<TRIPOS>BOND
       1        1        2 1
       2        1       12 1
       3        1       13 1
       4        1       14 1
       5        2        3 1
       6        2       15 1
       7        2       16 1
       8        3        4 1
       9        3       17 1
      10        3       18 1
      11        4        5 1
      12        4       19 1
      13        4       20 1
      14        5        6 1
      15        5       21 1
      16        5       22 1
      17        6        7 1
      18        6       23 1
      19        6       24 1
      20        7        8 1
      21        7       11 1
      22        8        9 1
      23        8       26 1
      24        9       10 1
      25       10       11 1
      26       10       27 1
      27       11       25 1
@<TRIPOS>SUBSTRUCTURE
       1 Polymer         1 RESIDUE    0 **** ROOT      0
