@<TRIPOS>MOLECULE
UNL
79 80 1 0 1
SMALL
NO_CHARGES
@<TRIPOS>CRYSIN
   74.7820    69.2990    72.2860    90.0000    90.0000    90.0000  1  1
@<TRIPOS>ATOM
       1 C0          34.1690    30.6640    30.2510 C0            1 UNL     
       2 C0          32.7790    30.5350    29.6350 C0            1 UNL     
       3 C0          31.8550    29.6940    30.5230 C0            1 UNL     
       4 C0          30.4640    29.5650    29.8920 C0            1 UNL     
       5 C0          29.5330    28.7120    30.7680 C0            1 UNL     
       6 C0          28.1460    28.5360    30.1300 C0            1 UNL     
       7 C1          27.4190    29.8440    29.9730 C1            1 UNL     
       8 C1          27.0580    30.6530    31.0470 C1            1 UNL     
       9 S2          26.2730    32.0100    30.4430 S2            1 UNL     
      10 C1          26.3800    31.5860    28.8200 C1            1 UNL     
      11 C1          27.0360    30.3670    28.7280 C1            1 UNL     
      12 C0         -25.8340   -29.4880   -29.5160 C0            1 UNL     
      13 C0         -27.2570   -29.6920   -30.0230 C0            1 UNL     
      14 C0         -28.1360   -30.3860   -28.9730 C0            1 UNL     
      15 C0         -29.5490   -30.6130   -29.5190 C0            1 UNL     
      16 C0         -30.4870   -31.2370   -28.4650 C0            1 UNL     
      17 C0         -31.8790   -31.5390   -29.0500 C0            1 UNL     
      18 C1         -32.5050   -30.2980   -29.6200 C1            1 UNL     
      19 C1         -32.9100   -29.2030   -28.8640 C1            1 UNL     
      20 S2         -33.4570   -28.0190   -29.9250 S2            1 UNL     
      21 C1         -33.1560   -28.8680   -31.3530 C1            1 UNL     
      22 C1         -32.6700   -30.1220   -30.9970 C1            1 UNL     
      23 C0         -26.0790   -27.9200   -33.4590 C0            1 UNL     
      24 C0         -27.4060   -27.9410   -34.2150 C0            1 UNL     
      25 C0         -28.3900   -28.9090   -33.5530 C0            1 UNL     
      26 C0         -29.7490   -28.9260   -34.2670 C0            1 UNL     
      27 C0         -30.6620   -29.9640   -33.6050 C0            1 UNL     
      28 C0         -32.0750   -30.0260   -34.2220 C0            1 UNL     
      29 C1         -32.8920   -28.7810   -33.9670 C1            1 UNL     
      30 C1         -33.3400   -28.3020   -32.7140 C1            1 UNL     
      31 S2         -34.1570   -26.8540   -32.9860 S2            1 UNL     
      32 C1         -33.9930   -26.8270   -34.6520 C1            1 UNL     
      33 C1         -33.2770   -27.9490   -35.0350 C1            1 UNL     
      34 H3          34.0870    30.6570    31.3470 H3            1 UNL     
      35 H3          34.7950    29.8200    29.9240 H3            1 UNL     
      36 H3          34.6290    31.6090    29.9240 H3            1 UNL     
      37 H3          32.3460    31.5390    29.5150 H3            1 UNL     
      38 H3          32.8750    30.0350    28.6600 H3            1 UNL     
      39 H3          32.2890    28.6910    30.6480 H3            1 UNL     
      40 H3          31.7550    30.1910    31.4990 H3            1 UNL     
      41 H3          30.0280    30.5680    29.7770 H3            1 UNL     
      42 H3          30.5690    29.0730    28.9140 H3            1 UNL     
      43 H3          29.9880    27.7200    30.9080 H3            1 UNL     
      44 H3          29.4020    29.2290    31.7290 H3            1 UNL     
      45 H3          28.2690    28.0780    29.1370 H3            1 UNL     
      46 H3          27.5480    27.8960    30.7960 H3            1 UNL     
      47 H4          26.3850    30.1010    31.7190 H4            1 UNL     
      48 H4          25.3710    31.4980    28.3920 H4            1 UNL     
      49 H5          27.9390    30.5030    28.1140 H5            1 UNL     
      50 H3         -25.8330   -29.4880   -28.4160 H3            1 UNL     
      51 H3         -25.1930   -30.3030   -29.8830 H3            1 UNL     
      52 H3         -25.4490   -28.5250   -29.8830 H3            1 UNL     
      53 H3         -27.6950   -28.7120   -30.2640 H3            1 UNL     
      54 H3         -27.2160   -30.3340   -30.9160 H3            1 UNL     
      55 H3         -27.6890   -31.3560   -28.7110 H3            1 UNL     
      56 H3         -28.1980   -29.7440   -28.0820 H3            1 UNL     
      57 H3         -29.9660   -29.6460   -29.8370 H3            1 UNL     
      58 H3         -29.4760   -31.3140   -30.3640 H3            1 UNL     
      59 H3         -30.0410   -32.1750   -28.1010 H3            1 UNL     
      60 H3         -30.6090   -30.5150   -27.6440 H3            1 UNL     
      61 H3         -31.7780   -32.2890   -29.8480 H3            1 UNL     
      62 H3         -32.5230   -31.9170   -28.2430 H3            1 UNL     
      63 H4         -33.7210   -29.4990   -28.1830 H4            1 UNL     
      64 H5         -31.6940   -30.2660   -31.4830 H5            1 UNL     
      65 H3         -26.2740   -27.9230   -32.3770 H3            1 UNL     
      66 H3         -25.4900   -28.8090   -33.7290 H3            1 UNL     
      67 H3         -25.5180   -27.0130   -33.7290 H3            1 UNL     
      68 H3         -27.8390   -26.9300   -34.2140 H3            1 UNL     
      69 H3         -27.2210   -28.2750   -35.2470 H3            1 UNL     
      70 H3         -27.9630   -29.9220   -33.5790 H3            1 UNL     
      71 H3         -28.5540   -28.5720   -32.5190 H3            1 UNL     
      72 H3         -30.2130   -27.9310   -34.1970 H3            1 UNL     
      73 H3         -29.6040   -29.1890   -35.3250 H3            1 UNL     
      74 H3         -30.1950   -30.9540   -33.7060 H3            1 UNL     
      75 H3         -30.7820   -29.6640   -32.5530 H3            1 UNL     
      76 H3         -31.9760   -30.1620   -35.3090 H3            1 UNL     
      77 H3         -32.6030   -30.8660   -33.7460 H3            1 UNL     
      78 H4         -34.9870   -26.8400   -35.1240 H4            1 UNL     
      79 H5         -32.3680   -27.6160   -35.5570 H5            1 UNL     
@<TRIPOS>BOND
       1        2        1 1
       2       34        1 1
       3       35        1 1
       4       36        1 1
       5        3        2 1
       6       37        2 1
       7       38        2 1
       8        4        3 1
       9       39        3 1
      10       40        3 1
      11        5        4 1
      12       41        4 1
      13       42        4 1
      14        6        5 1
      15       43        5 1
      16       44        5 1
      17        7        6 1
      18       45        6 1
      19       46        6 1
      20        8        7 1
      21       11        7 1
      22        9        8 1
      23       47        8 1
      24       10        9 1
      25       11       10 1
      26       48       10 1
      27       49       11 1
      28       13       12 1
      29       50       12 1
      30       51       12 1
      31       52       12 1
      32       14       13 1
      33       53       13 1
      34       54       13 1
      35       15       14 1
      36       55       14 1
      37       56       14 1
      38       16       15 1
      39       57       15 1
      40       58       15 1
      41       17       16 1
      42       59       16 1
      43       60       16 1
      44       18       17 1
      45       61       17 1
      46       62       17 1
      47       19       18 1
      48       22       18 1
      49       20       19 1
      50       63       19 1
      51       21       20 1
      52       22       21 1
      53       30       21 1
      54       64       22 1
      55       24       23 1
      56       65       23 1
      57       66       23 1
      58       67       23 1
      59       25       24 1
      60       68       24 1
      61       69       24 1
      62       26       25 1
      63       70       25 1
      64       71       25 1
      65       27       26 1
      66       72       26 1
      67       73       26 1
      68       28       27 1
      69       74       27 1
      70       75       27 1
      71       29       28 1
      72       76       28 1
      73       77       28 1
      74       30       29 1
      75       33       29 1
      76       31       30 1
      77       32       31 1
      78       33       32 1
      79       78       32 1
      80       79       33 1
@<TRIPOS>SUBSTRUCTURE
       1 UNL             1 RESIDUE    0 **** ROOT      0
