@<TRIPOS>MOLECULE
P3HT
27 27 1 0 1
SMALL
NO_CHARGES
@<TRIPOS>CRYSIN
   13.7896     9.6851     9.2242    90.0000    90.0000    90.0000  1  1
@<TRIPOS>ATOM
       1 C            4.1645     0.6569     0.1981 C             1 P3HT    
       2 C            2.7742     0.5277    -0.4173 C             1 P3HT    
       3 C            1.8457    -0.2980     0.4805 C             1 P3HT    
       4 C            0.4503    -0.4255    -0.1413 C             1 P3HT    
       5 C           -0.4827    -1.2449     0.7626 C             1 P3HT    
       6 C           -1.8650    -1.4598     0.1308 C             1 P3HT    
       7 C           -2.6390    -0.1761     0.0234 C             1 P3HT    
       8 C           -3.2734     0.4213     1.1077 C             1 P3HT    
       9 S           -3.9762     1.8504     0.5725 S             1 P3HT    
      10 C           -3.4826     1.7297    -1.0294 C             1 P3HT    
      11 C           -2.7522     0.5581    -1.1678 C             1 P3HT    
      12 H            4.8134     1.2585    -0.4727 H             1 P3HT    
      13 H            4.6230    -0.3464     0.3298 H             1 P3HT    
      14 H            4.1044     1.1654     1.1839 H             1 P3HT    
      15 H            2.8654     0.0396    -1.4122 H             1 P3HT    
      16 H            2.3492     1.5450    -0.5617 H             1 P3HT    
      17 H            2.2792    -1.3125     0.6237 H             1 P3HT    
      18 H            1.7616     0.1944     1.4746 H             1 P3HT    
      19 H            0.0257     0.5912    -0.2891 H             1 P3HT    
      20 H            0.5332    -0.9225    -1.1330 H             1 P3HT    
      21 H           -0.0266    -2.2426     0.9446 H             1 P3HT    
      22 H           -0.5956    -0.7393     1.7471 H             1 P3HT    
      23 H           -2.4401    -2.1718     0.7615 H             1 P3HT    
      24 H           -1.7542    -1.9277    -0.8719 H             1 P3HT    
      25 H           -3.3032     0.0380     2.1191 H             1 P3HT    
      26 H           -3.6907     2.4424    -1.8157 H             1 P3HT    
      27 H           -2.3084     0.2486    -2.1051 H             1 P3HT    
@<TRIPOS>BOND
       1        2        1 1
       2       12        1 1
       3       13        1 1
       4       14        1 1
       5        3        2 1
       6       15        2 1
       7       16        2 1
       8        4        3 1
       9       17        3 1
      10       18        3 1
      11        5        4 1
      12       19        4 1
      13       20        4 1
      14        6        5 1
      15       21        5 1
      16       22        5 1
      17        7        6 1
      18       23        6 1
      19       24        6 1
      20        8        7 1
      21       11        7 1
      22        9        8 1
      23       25        8 1
      24       10        9 1
      25       11       10 1
      26       26       10 1
      27       27       11 1
@<TRIPOS>SUBSTRUCTURE
       1 P3HT            1 RESIDUE    0 **** ROOT      0
