@<TRIPOS>MOLECULE
Compound
318 327 1 0 1
SMALL
NO_CHARGES
@<TRIPOS>CRYSIN
   30.6190    24.0560    36.8180    90.0000    90.0000    90.0000  1  1
@<TRIPOS>ATOM
       1 C0          -9.7100    -0.7460    -1.1790 C0            1 Compound
       2 C1         -10.9920    -0.0690    -0.7150 C1            1 Compound
       3 C2         -10.6060     0.4550     0.6420 C2            1 Compound
       4 S3         -12.0570     1.3370     1.2620 S3            1 Compound
       5 C4         -13.0270     0.0670     0.4160 C4            1 Compound
       6 C5         -12.3310    -0.6590    -0.5420 C5            1 Compound
       7 C6          -9.3350     1.2250     0.3400 C6            1 Compound
       8 C7          -8.7720     0.4600    -0.8550 C7            1 Compound
       9 C8          -7.3560     0.1200    -0.6350 C8            1 Compound
      10 C9          -6.9440     0.1350     0.7900 C9            1 Compound
      11 S10         -8.1080     1.2090     1.7080 S10           1 Compound
      12 H11        -14.0870    -0.0590     0.5910 H11           1 Compound
      13 H12        -12.8380    -1.2670    -1.2780 H12           1 Compound
      14 H13         -6.7990    -0.4230    -1.3870 H13           1 Compound
      15 C0           2.1340     0.7170    -2.2360 C0            1 Compound
      16 C7           0.7330     1.0780    -1.7050 C7            1 Compound
      17 C14          1.0590     1.6080    -0.3440 C14           1 Compound
      18 S15         -0.4740     2.1900     0.3820 S15           1 Compound
      19 C16         -1.1850     0.6060    -0.2330 C16           1 Compound
      20 C8          -0.4270     0.1770    -1.4760 C8            1 Compound
      21 C6           2.1530     2.6140    -0.5840 C6            1 Compound
      22 C7           2.8080     2.0790    -1.8540 C7            1 Compound
      23 C8           4.2820     2.0890    -1.6860 C8            1 Compound
      24 C17          4.7010     1.9610    -0.2660 C17           1 Compound
      25 S18          3.3510     2.5810     0.7960 S18           1 Compound
      26 H19         -0.9270    -0.2690    -2.3250 H19           1 Compound
      27 H13          4.9280     1.7750    -2.4960 H13           1 Compound
      28 C20          8.5020     2.4350    -0.2830 C20           1 Compound
      29 N21          9.5540     1.5190    -0.6710 N21           1 Compound
      30 S22          8.9190    -0.1180    -0.3830 S22           1 Compound
      31 N23          7.2710     0.4430    -0.0320 N23           1 Compound
      32 C24          7.1950     1.7750    -0.5890 C24           1 Compound
      33 C25          6.0600     2.5980     0.0410 C25           1 Compound
      34 C26          6.2070     4.1240    -0.2460 C26           1 Compound
      35 F27          5.0050     4.7260    -0.5760 F27           1 Compound
      36 C28          7.2610     4.4160    -1.3200 C28           1 Compound
      37 C29          8.6310     3.8030    -0.9750 C29           1 Compound
      38 H30          7.3660     5.5020    -1.5200 H30           1 Compound
      39 H31          9.2250     3.7450    -1.9110 H31           1 Compound
      40 C32         -4.9750     1.5930     0.0540 C32           1 Compound
      41 N23         -5.5670     2.8620     0.4080 N23           1 Compound
      42 S22         -4.5500     4.0730    -0.4060 S22           1 Compound
      43 N23         -3.2300     2.9380    -0.7280 N23           1 Compound
      44 C33         -3.4870     1.7940     0.1200 C33           1 Compound
      45 C25         -2.7290     0.5270    -0.3460 C25           1 Compound
      46 C34         -3.1730    -0.6450     0.5420 C34           1 Compound
      47 F27         -2.5720    -1.8190     0.1220 F27           1 Compound
      48 C35         -4.6890    -0.8300     0.5250 C35           1 Compound
      49 C36         -5.4430     0.4380     0.9490 C36           1 Compound
      50 H37         -4.9660    -1.6740     1.1920 H37           1 Compound
      51 C38        -15.3360   -12.5860     3.5880 C38           1 Compound
      52 C39        -14.2610   -12.6510     4.6690 C39           1 Compound
      53 C40        -13.4870   -11.3300     4.7610 C40           1 Compound
      54 C41        -12.4400   -11.3850     5.8870 C41           1 Compound
      55 C42        -11.6830   -10.0460     6.1000 C42           1 Compound
      56 C43        -10.8290    -9.6670     4.8600 C43           1 Compound
      57 C44        -10.0720    -8.3380     5.0150 C44           1 Compound
      58 C45         -9.3920    -7.9510     3.6940 C45           1 Compound
      59 C45         -8.5300    -6.6830     3.7980 C45           1 Compound
      60 C45         -9.2650    -5.4160     4.2790 C45           1 Compound
      61 C45        -10.4880    -4.9770     3.4500 C45           1 Compound
      62 C45        -10.1650    -4.7350     1.9710 C45           1 Compound
      63 C45        -11.3290    -4.0250     1.2450 C45           1 Compound
      64 C46        -11.1440    -3.9370    -0.2850 C46           1 Compound
      65 C47         -9.7690    -3.4390    -0.7440 C47           1 Compound
      66 C48         -9.2980    -2.0250    -0.3230 C48           1 Compound
      67 C43        -10.8750   -10.0880     7.4270 C43           1 Compound
      68 C44         -9.7130   -11.1010     7.4560 C44           1 Compound
      69 C45         -8.9410   -11.0810     8.7880 C45           1 Compound
      70 C49         -9.7880   -11.5650     9.9820 C49           1 Compound
      71 C50         -8.9900   -11.6600    11.2920 C50           1 Compound
      72 C51         -8.5090   -10.3020    11.8050 C51           1 Compound
      73 H52        -14.8770   -12.3900     2.5960 H52           1 Compound
      74 H52        -15.8790   -13.5540     3.5450 H52           1 Compound
      75 H52        -16.0650   -11.7800     3.8190 H52           1 Compound
      76 H53        -14.7520   -12.8660     5.6430 H53           1 Compound
      77 H53        -13.5580   -13.4800     4.4330 H53           1 Compound
      78 H54        -13.0000   -11.1430     3.7810 H54           1 Compound
      79 H54        -14.2020   -10.5050     4.9740 H54           1 Compound
      80 H55        -12.9860   -11.6240     6.8270 H55           1 Compound
      81 H55        -11.7220   -12.2070     5.6820 H55           1 Compound
      82 H56        -12.4490    -9.2510     6.2420 H56           1 Compound
      83 H57        -11.5070    -9.5560     3.9900 H57           1 Compound
      84 H57        -10.1040   -10.4760     4.6270 H57           1 Compound
      85 H54         -9.2990    -8.4350     5.8060 H54           1 Compound
      86 H54        -10.7930    -7.5450     5.3010 H54           1 Compound
      87 H54         -8.7220    -8.7810     3.3740 H54           1 Compound
      88 H54        -10.1640    -7.8140     2.9080 H54           1 Compound
      89 H54         -8.0790    -6.4890     2.8010 H54           1 Compound
      90 H54         -7.6940    -6.8770     4.5050 H54           1 Compound
      91 H54         -8.5250    -4.5860     4.2810 H54           1 Compound
      92 H54         -9.5930    -5.5580     5.3300 H54           1 Compound
      93 H54        -10.8520    -4.0280     3.9020 H54           1 Compound
      94 H54        -11.3040    -5.7280     3.5270 H54           1 Compound
      95 H54         -9.9460    -5.7120     1.4870 H54           1 Compound
      96 H54         -9.2650    -4.0870     1.9080 H54           1 Compound
      97 H54        -11.4380    -3.0040     1.6700 H54           1 Compound
      98 H54        -12.2770    -4.5780     1.4250 H54           1 Compound
      99 H54        -11.9580    -3.3410    -0.7350 H54           1 Compound
     100 H54        -11.2400    -4.9710    -0.6860 H54           1 Compound
     101 H58         -9.6660    -3.5740    -1.8370 H58           1 Compound
     102 H58         -9.0360    -4.1610    -0.3250 H58           1 Compound
     103 H59         -9.4090    -1.8680     0.7710 H59           1 Compound
     104 H59         -8.2100    -2.1460    -0.4890 H59           1 Compound
     105 H57        -10.4700    -9.0770     7.6400 H57           1 Compound
     106 H57        -11.5930   -10.3180     8.2390 H57           1 Compound
     107 H54         -8.9930   -10.8410     6.6520 H54           1 Compound
     108 H54        -10.0820   -12.1310     7.2720 H54           1 Compound
     109 H54         -8.5590   -10.0540     8.9660 H54           1 Compound
     110 H54         -8.0710   -11.7640     8.6840 H54           1 Compound
     111 H54        -10.1690   -12.5830     9.7460 H54           1 Compound
     112 H54        -10.6590   -10.8990    10.1510 H54           1 Compound
     113 H60         -9.6530   -12.1000    12.0680 H60           1 Compound
     114 H60         -8.1200   -12.3390    11.1560 H60           1 Compound
     115 H52         -7.9840   -10.4410    12.7740 H52           1 Compound
     116 H52         -7.7980    -9.8330    11.0960 H52           1 Compound
     117 H52         -9.3740    -9.6240    11.9650 H52           1 Compound
     118 C38        -15.3240     0.6590   -14.2480 C38           1 Compound
     119 C39        -14.2440    -0.2820   -14.7740 C39           1 Compound
     120 C40        -13.4840    -0.9530   -13.6230 C40           1 Compound
     121 C41        -12.4290    -1.9340   -14.1630 C41           1 Compound
     122 C42        -11.6770    -2.7200   -13.0540 C42           1 Compound
     123 C43        -10.8340    -1.7760   -12.1520 C43           1 Compound
     124 C44        -10.0800    -2.5010   -11.0240 C44           1 Compound
     125 C45         -9.3970    -1.4870   -10.0920 C45           1 Compound
     126 C45         -8.5250    -2.1400    -9.0060 C45           1 Compound
     127 C45         -9.2560    -3.1170    -8.0660 C45           1 Compound
     128 C45        -10.4450    -2.5310    -7.2770 C45           1 Compound
     129 C45        -10.0520    -1.3740    -6.3450 C45           1 Compound
     130 C45        -11.2370    -0.9670    -5.4410 C45           1 Compound
     131 C61        -10.9450     0.2490    -4.5270 C61           1 Compound
     132 C47         -9.6620     0.1370    -3.6850 C47           1 Compound
     133 C62         -9.6000    -1.0610    -2.6990 C62           1 Compound
     134 C43        -10.8610    -3.8840   -13.6810 C43           1 Compound
     135 C44         -9.6990    -3.4530   -14.5980 C44           1 Compound
     136 C45         -8.9250    -4.6510   -15.1800 C45           1 Compound
     137 C49         -9.7670    -5.4980   -16.1550 C49           1 Compound
     138 C50         -8.9650    -6.6230   -16.8280 C50           1 Compound
     139 C51         -8.4880    -7.6950   -15.8470 C51           1 Compound
     140 H52        -14.8710     1.4590   -13.6260 H52           1 Compound
     141 H52        -15.8560     1.1290   -15.1020 H52           1 Compound
     142 H52        -16.0620     0.0940   -13.6390 H52           1 Compound
     143 H53        -14.7280    -1.0580   -15.4070 H53           1 Compound
     144 H53        -13.5330     0.2980   -15.4030 H53           1 Compound
     145 H54        -13.0060    -0.1600   -13.0120 H54           1 Compound
     146 H54        -14.2060    -1.5140   -12.9890 H54           1 Compound
     147 H55        -12.9660    -2.6690   -14.8030 H55           1 Compound
     148 H55        -11.7060    -1.3800   -14.8000 H55           1 Compound
     149 H56        -12.4460    -3.2060   -12.4120 H56           1 Compound
     150 H57        -11.5190    -1.0490   -11.6700 H57           1 Compound
     151 H57        -10.1070    -1.2050   -12.7690 H57           1 Compound
     152 H54         -9.3060    -3.1680   -11.4600 H54           1 Compound
     153 H54        -10.8020    -3.1090   -10.4400 H54           1 Compound
     154 H54         -8.7320    -0.8330   -10.6990 H54           1 Compound
     155 H54        -10.1660    -0.8410    -9.6180 H54           1 Compound
     156 H54         -8.0540    -1.3350    -8.4040 H54           1 Compound
     157 H54         -7.7030    -2.7000    -9.5040 H54           1 Compound
     158 H54         -8.5130    -3.5160    -7.3430 H54           1 Compound
     159 H54         -9.6260    -3.9820    -8.6580 H54           1 Compound
     160 H54        -10.8540    -3.3590    -6.6570 H54           1 Compound
     161 H54        -11.2450    -2.1990    -7.9720 H54           1 Compound
     162 H54         -9.7210    -0.5020    -6.9490 H54           1 Compound
     163 H54         -9.2110    -1.7190    -5.7080 H54           1 Compound
     164 H54        -11.5290    -1.8420    -4.8270 H54           1 Compound
     165 H54        -12.1100    -0.7040    -6.0770 H54           1 Compound
     166 H54        -11.8190     0.4320    -3.8660 H54           1 Compound
     167 H54        -10.8210     1.1390    -5.1830 H54           1 Compound
     168 H58         -9.4640     1.1000    -3.1740 H58           1 Compound
     169 H58         -8.8230     0.0330    -4.4030 H58           1 Compound
     170 H59        -10.3050    -1.8550    -3.0040 H59           1 Compound
     171 H59         -8.5790    -1.4860    -2.8220 H59           1 Compound
     172 H57        -10.4550    -4.5260   -12.8710 H57           1 Compound
     173 H57        -11.5750    -4.5120   -14.2520 H57           1 Compound
     174 H54         -8.9820    -2.8500   -14.0040 H54           1 Compound
     175 H54        -10.0680    -2.8280   -15.4380 H54           1 Compound
     176 H54         -8.5430    -5.2720   -14.3430 H54           1 Compound
     177 H54         -8.0530    -4.2480   -15.7410 H54           1 Compound
     178 H54        -10.1450    -4.8280   -16.9580 H54           1 Compound
     179 H54        -10.6390    -5.9500   -15.6400 H54           1 Compound
     180 H60         -9.6240    -7.1170   -17.5740 H60           1 Compound
     181 H60         -8.0930    -6.1950   -17.3680 H60           1 Compound
     182 H52         -7.9600    -8.4960   -16.4060 H52           1 Compound
     183 H52         -7.7810    -7.2740   -15.1030 H52           1 Compound
     184 H52         -9.3550    -8.1450   -15.3180 H52           1 Compound
     185 C38         -0.5800   -12.4700     1.7380 C38           1 Compound
     186 C39          0.4830   -12.3420     2.8320 C39           1 Compound
     187 C40          0.9200   -10.8800     3.0020 C40           1 Compound
     188 C41          1.9560   -10.7490     4.1320 C41           1 Compound
     189 C42          2.3810    -9.2830     4.4220 C42           1 Compound
     190 C43          3.1070    -8.6440     3.2080 C43           1 Compound
     191 C44          3.5380    -7.1870     3.4420 C44           1 Compound
     192 C45          4.0970    -6.5770     2.1480 C45           1 Compound
     193 C45          4.6510    -5.1560     2.3320 C45           1 Compound
     194 C45          3.6550    -4.1180     2.8860 C45           1 Compound
     195 C45          2.3620    -3.9070     2.0740 C45           1 Compound
     196 C45          2.6190    -3.4930     0.6200 C45           1 Compound
     197 C45          1.3250    -3.0040    -0.0690 C45           1 Compound
     198 C46          1.4830    -2.7620    -1.5860 C46           1 Compound
     199 C47          2.7120    -1.9390    -1.9830 C47           1 Compound
     200 C48          2.8440    -0.4830    -1.4670 C48           1 Compound
     201 C43          3.1910    -9.2110     5.7470 C43           1 Compound
     202 C44          4.5610    -9.9160     5.7170 C44           1 Compound
     203 C45          5.3190    -9.7940     7.0530 C45           1 Compound
     204 C49          4.6300   -10.5470     8.2080 C49           1 Compound
     205 C50          5.4390   -10.5230     9.5140 C50           1 Compound
     206 C51          5.5680    -9.1240    10.1180 C51           1 Compound
     207 H52         -0.1760   -12.1180     0.7670 H52           1 Compound
     208 H52         -0.8770   -13.5360     1.6370 H52           1 Compound
     209 H52         -1.4780   -11.8740     2.0020 H52           1 Compound
     210 H53          0.0510   -12.7180     3.7860 H53           1 Compound
     211 H53          1.3580   -12.9660     2.5620 H53           1 Compound
     212 H54          1.3450   -10.5310     2.0390 H54           1 Compound
     213 H54          0.0310   -10.2600     3.2540 H54           1 Compound
     214 H55          1.4870   -11.1610     5.0530 H55           1 Compound
     215 H55          2.8460   -11.3660     3.8870 H55           1 Compound
     216 H56          1.4500    -8.7000     4.6080 H56           1 Compound
     217 H57          2.4110    -8.6430     2.3440 H57           1 Compound
     218 H57          3.9980    -9.2470     2.9290 H57           1 Compound
     219 H54          4.3220    -7.1480     4.2280 H54           1 Compound
     220 H54          2.6570    -6.5990     3.7730 H54           1 Compound
     221 H54          4.9340    -7.2120     1.7800 H54           1 Compound
     222 H54          3.3050    -6.5720     1.3700 H54           1 Compound
     223 H54          5.0410    -4.8050     1.3520 H54           1 Compound
     224 H54          5.5160    -5.2010     3.0310 H54           1 Compound
     225 H54          4.1920    -3.1460     2.9510 H54           1 Compound
     226 H54          3.3710    -4.3980     3.9230 H54           1 Compound
     227 H54          1.7970    -3.0980     2.5860 H54           1 Compound
     228 H54          1.7360    -4.8240     2.0880 H54           1 Compound
     229 H54          3.0490    -4.3600     0.0710 H54           1 Compound
     230 H54          3.3530    -2.6600     0.6170 H54           1 Compound
     231 H54          0.9940    -2.0680     0.4280 H54           1 Compound
     232 H54          0.5240    -3.7660     0.0560 H54           1 Compound
     233 H54          0.5550    -2.3240    -2.0050 H54           1 Compound
     234 H54          1.6200    -3.7590    -2.0620 H54           1 Compound
     235 H58          2.8450    -1.9770    -3.0810 H58           1 Compound
     236 H58          3.5910    -2.5010    -1.6020 H58           1 Compound
     237 H59          2.7170    -0.4280    -0.3660 H59           1 Compound
     238 H59          3.9270    -0.3330    -1.6450 H59           1 Compound
     239 H57          3.3460    -8.1460     6.0210 H57           1 Compound
     240 H57          2.5570    -9.6520     6.5420 H57           1 Compound
     241 H54          5.1900    -9.4420     4.9350 H54           1 Compound
     242 H54          4.4480   -10.9920     5.4690 H54           1 Compound
     243 H54          5.4420    -8.7180     7.2980 H54           1 Compound
     244 H54          6.3290   -10.2350     6.9090 H54           1 Compound
     245 H54          4.5120   -11.6100     7.9050 H54           1 Compound
     246 H54          3.6230   -10.1300     8.4130 H54           1 Compound
     247 H60          4.9150   -11.1640    10.2550 H60           1 Compound
     248 H60          6.4500   -10.9510     9.3410 H60           1 Compound
     249 H52          6.1200    -9.1880    11.0790 H52           1 Compound
     250 H52          6.1300    -8.4450     9.4460 H52           1 Compound
     251 H52          4.5620    -8.6970    10.3160 H52           1 Compound
     252 C38         -3.7690     1.4300   -15.2850 C38           1 Compound
     253 C39         -2.5080     0.7920   -15.8610 C39           1 Compound
     254 C40         -1.6010     0.2540   -14.7460 C40           1 Compound
     255 C41         -0.3540    -0.4250   -15.3370 C41           1 Compound
     256 C42          0.5700    -1.0760   -14.2700 C42           1 Compound
     257 C43          1.1810    -0.0150   -13.3130 C43           1 Compound
     258 C44          2.0930    -0.6070   -12.2240 C44           1 Compound
     259 C45          2.5330     0.4870   -11.2360 C45           1 Compound
     260 C45          3.5490     0.0000   -10.1870 C45           1 Compound
     261 C45          3.0790    -1.1660    -9.2960 C45           1 Compound
     262 C45          1.8050    -0.9130    -8.4680 C45           1 Compound
     263 C45          1.9280     0.2570    -7.4750 C45           1 Compound
     264 C45          0.6890     0.3230    -6.5540 C45           1 Compound
     265 C61          0.6760     1.5290    -5.5810 C61           1 Compound
     266 C47          1.9330     1.6900    -4.7080 C47           1 Compound
     267 C62          2.2620     0.4960    -3.7740 C62           1 Compound
     268 C43          1.6260    -1.9850   -14.9600 C43           1 Compound
     269 C44          2.6490    -1.2480   -15.8470 C44           1 Compound
     270 C45          3.6680    -2.2030   -16.4980 C45           1 Compound
     271 C49          3.0280    -3.1580   -17.5270 C49           1 Compound
     272 C39          4.0560    -4.0300   -18.2660 C39           1 Compound
     273 C63          4.7720    -5.0240   -17.3520 C63           1 Compound
     274 H52         -3.5040     2.2800   -14.6200 H52           1 Compound
     275 H52         -4.4050     1.8090   -16.1120 H52           1 Compound
     276 H52         -4.3490     0.6800   -14.7050 H52           1 Compound
     277 H53         -2.8080    -0.0400   -16.5340 H53           1 Compound
     278 H53         -1.9570     1.5520   -16.4560 H53           1 Compound
     279 H54         -1.3120     1.1030   -14.0930 H54           1 Compound
     280 H54         -2.1670    -0.4910   -14.1450 H54           1 Compound
     281 H55         -0.7130    -1.2280   -16.0180 H55           1 Compound
     282 H55          0.2150     0.3140   -15.9400 H55           1 Compound
     283 H56         -0.0610    -1.7610   -13.6600 H56           1 Compound
     284 H57          0.3520     0.5070   -12.7950 H57           1 Compound
     285 H57          1.7510     0.7410   -13.8950 H57           1 Compound
     286 H54          2.9950    -1.0520   -12.6940 H54           1 Compound
     287 H54          1.5370    -1.3950   -11.6750 H54           1 Compound
     288 H54          3.0200     1.3090   -11.8060 H54           1 Compound
     289 H54          1.6410     0.9090   -10.7260 H54           1 Compound
     290 H54          3.8280     0.8620    -9.5440 H54           1 Compound
     291 H54          4.4710    -0.3260   -10.7160 H54           1 Compound
     292 H54          3.9090    -1.4180    -8.6000 H54           1 Compound
     293 H54          2.9100    -2.0610    -9.9320 H54           1 Compound
     294 H54          1.6110    -1.8450    -7.8930 H54           1 Compound
     295 H54          0.9370    -0.7430    -9.1410 H54           1 Compound
     296 H54          2.0330     1.2110    -8.0350 H54           1 Compound
     297 H54          2.8340     0.0950    -6.8530 H54           1 Compound
     298 H54          0.6220    -0.6270    -5.9850 H54           1 Compound
     299 H54         -0.2260     0.3950    -7.1820 H54           1 Compound
     300 H54         -0.2240     1.4620    -4.9330 H54           1 Compound
     301 H54          0.5870     2.4530    -6.1940 H54           1 Compound
     302 H58          1.8750     2.6410    -4.1420 H58           1 Compound
     303 H58          2.7860     1.8290    -5.4050 H58           1 Compound
     304 H59          1.7190    -0.4110    -4.0940 H59           1 Compound
     305 H59          3.3430     0.2900    -3.9430 H59           1 Compound
     306 H57          2.1760    -2.5600   -14.1850 H57           1 Compound
     307 H57          1.0690    -2.7270   -15.5680 H57           1 Compound
     308 H54          3.2180    -0.5340   -15.2160 H54           1 Compound
     309 H54          2.1390    -0.6750   -16.6490 H54           1 Compound
     310 H54          4.1890    -2.7730   -15.7000 H54           1 Compound
     311 H54          4.4210    -1.5810   -17.0300 H54           1 Compound
     312 H54          2.5010    -2.5430   -18.2880 H54           1 Compound
     313 H54          2.2850    -3.8260   -17.0440 H54           1 Compound
     314 H64          3.5170    -4.6130   -19.0440 H64           1 Compound
     315 H64          4.8040    -3.3850   -18.7750 H64           1 Compound
     316 H65          5.4610    -5.6500   -17.9580 H65           1 Compound
     317 H52          5.3750    -4.5020   -16.5820 H52           1 Compound
     318 H52          4.0350    -5.6900   -16.8550 H52           1 Compound
@<TRIPOS>BOND
       1        2        1 1
       2        8        1 1
       3       66        1 1
       4      133        1 1
       5        3        2 1
       6        6        2 1
       7        4        3 1
       8        7        3 1
       9        5        4 1
      10        6        5 1
      11       12        5 1
      12       13        6 1
      13        8        7 1
      14       11        7 1
      15        9        8 1
      16       10        9 1
      17       14        9 1
      18       11       10 1
      19       49       10 1
      20       16       15 1
      21       22       15 1
      22      200       15 1
      23      267       15 1
      24       17       16 1
      25       20       16 1
      26       18       17 1
      27       21       17 1
      28       19       18 1
      29       20       19 1
      30       45       19 1
      31       26       20 1
      32       22       21 1
      33       25       21 1
      34       23       22 1
      35       24       23 1
      36       27       23 1
      37       25       24 1
      38       33       24 1
      39       29       28 1
      40       32       28 1
      41       37       28 1
      42       30       29 1
      43       31       30 1
      44       32       31 1
      45       33       32 1
      46       34       33 1
      47       35       34 1
      48       36       34 1
      49       37       36 1
      50       38       36 1
      51       39       37 1
      52       41       40 1
      53       44       40 1
      54       49       40 1
      55       42       41 1
      56       43       42 1
      57       44       43 1
      58       45       44 1
      59       46       45 1
      60       47       46 1
      61       48       46 1
      62       49       48 1
      63       50       48 1
      64       52       51 1
      65       73       51 1
      66       74       51 1
      67       75       51 1
      68       53       52 1
      69       76       52 1
      70       77       52 1
      71       54       53 1
      72       78       53 1
      73       79       53 1
      74       55       54 1
      75       80       54 1
      76       81       54 1
      77       56       55 1
      78       67       55 1
      79       82       55 1
      80       57       56 1
      81       83       56 1
      82       84       56 1
      83       58       57 1
      84       85       57 1
      85       86       57 1
      86       59       58 1
      87       87       58 1
      88       88       58 1
      89       60       59 1
      90       89       59 1
      91       90       59 1
      92       61       60 1
      93       91       60 1
      94       92       60 1
      95       62       61 1
      96       93       61 1
      97       94       61 1
      98       63       62 1
      99       95       62 1
     100       96       62 1
     101       64       63 1
     102       97       63 1
     103       98       63 1
     104       65       64 1
     105       99       64 1
     106      100       64 1
     107       66       65 1
     108      101       65 1
     109      102       65 1
     110      103       66 1
     111      104       66 1
     112       68       67 1
     113      105       67 1
     114      106       67 1
     115       69       68 1
     116      107       68 1
     117      108       68 1
     118       70       69 1
     119      109       69 1
     120      110       69 1
     121       71       70 1
     122      111       70 1
     123      112       70 1
     124       72       71 1
     125      113       71 1
     126      114       71 1
     127      115       72 1
     128      116       72 1
     129      117       72 1
     130      119      118 1
     131      140      118 1
     132      141      118 1
     133      142      118 1
     134      120      119 1
     135      143      119 1
     136      144      119 1
     137      121      120 1
     138      145      120 1
     139      146      120 1
     140      122      121 1
     141      147      121 1
     142      148      121 1
     143      123      122 1
     144      134      122 1
     145      149      122 1
     146      124      123 1
     147      150      123 1
     148      151      123 1
     149      125      124 1
     150      152      124 1
     151      153      124 1
     152      126      125 1
     153      154      125 1
     154      155      125 1
     155      127      126 1
     156      156      126 1
     157      157      126 1
     158      128      127 1
     159      158      127 1
     160      159      127 1
     161      129      128 1
     162      160      128 1
     163      161      128 1
     164      130      129 1
     165      162      129 1
     166      163      129 1
     167      131      130 1
     168      164      130 1
     169      165      130 1
     170      132      131 1
     171      166      131 1
     172      167      131 1
     173      133      132 1
     174      168      132 1
     175      169      132 1
     176      170      133 1
     177      171      133 1
     178      135      134 1
     179      172      134 1
     180      173      134 1
     181      136      135 1
     182      174      135 1
     183      175      135 1
     184      137      136 1
     185      176      136 1
     186      177      136 1
     187      138      137 1
     188      178      137 1
     189      179      137 1
     190      139      138 1
     191      180      138 1
     192      181      138 1
     193      182      139 1
     194      183      139 1
     195      184      139 1
     196      186      185 1
     197      207      185 1
     198      208      185 1
     199      209      185 1
     200      187      186 1
     201      210      186 1
     202      211      186 1
     203      188      187 1
     204      212      187 1
     205      213      187 1
     206      189      188 1
     207      214      188 1
     208      215      188 1
     209      190      189 1
     210      201      189 1
     211      216      189 1
     212      191      190 1
     213      217      190 1
     214      218      190 1
     215      192      191 1
     216      219      191 1
     217      220      191 1
     218      193      192 1
     219      221      192 1
     220      222      192 1
     221      194      193 1
     222      223      193 1
     223      224      193 1
     224      195      194 1
     225      225      194 1
     226      226      194 1
     227      196      195 1
     228      227      195 1
     229      228      195 1
     230      197      196 1
     231      229      196 1
     232      230      196 1
     233      198      197 1
     234      231      197 1
     235      232      197 1
     236      199      198 1
     237      233      198 1
     238      234      198 1
     239      200      199 1
     240      235      199 1
     241      236      199 1
     242      237      200 1
     243      238      200 1
     244      202      201 1
     245      239      201 1
     246      240      201 1
     247      203      202 1
     248      241      202 1
     249      242      202 1
     250      204      203 1
     251      243      203 1
     252      244      203 1
     253      205      204 1
     254      245      204 1
     255      246      204 1
     256      206      205 1
     257      247      205 1
     258      248      205 1
     259      249      206 1
     260      250      206 1
     261      251      206 1
     262      253      252 1
     263      274      252 1
     264      275      252 1
     265      276      252 1
     266      254      253 1
     267      277      253 1
     268      278      253 1
     269      255      254 1
     270      279      254 1
     271      280      254 1
     272      256      255 1
     273      281      255 1
     274      282      255 1
     275      257      256 1
     276      268      256 1
     277      283      256 1
     278      258      257 1
     279      284      257 1
     280      285      257 1
     281      259      258 1
     282      286      258 1
     283      287      258 1
     284      260      259 1
     285      288      259 1
     286      289      259 1
     287      261      260 1
     288      290      260 1
     289      291      260 1
     290      262      261 1
     291      292      261 1
     292      293      261 1
     293      263      262 1
     294      294      262 1
     295      295      262 1
     296      264      263 1
     297      296      263 1
     298      297      263 1
     299      265      264 1
     300      298      264 1
     301      299      264 1
     302      266      265 1
     303      300      265 1
     304      301      265 1
     305      267      266 1
     306      302      266 1
     307      303      266 1
     308      304      267 1
     309      305      267 1
     310      269      268 1
     311      306      268 1
     312      307      268 1
     313      270      269 1
     314      308      269 1
     315      309      269 1
     316      271      270 1
     317      310      270 1
     318      311      270 1
     319      272      271 1
     320      312      271 1
     321      313      271 1
     322      273      272 1
     323      314      272 1
     324      315      272 1
     325      316      273 1
     326      317      273 1
     327      318      273 1
@<TRIPOS>SUBSTRUCTURE
       1 Compound        1 RESIDUE    0 **** ROOT      0
