@<TRIPOS>MOLECULE
Compound
198 207 1 0 1
SMALL
NO_CHARGES
@<TRIPOS>CRYSIN
   27.7450    17.5930    17.2350    90.0000    90.0000    90.0000  1  1
@<TRIPOS>ATOM
       1 C0         -20.1820     0.6540     0.0200 C0            1 Compound
       2 C1         -21.5290     1.1520     0.6170 C1            1 Compound
       3 C2         -21.3190     1.3080     2.1550 C2            1 Compound
       4 S3         -22.9560     1.1670     2.9460 S3            1 Compound
       5 C4         -23.5660     0.2840     1.5100 C4            1 Compound
       6 C5         -22.7460     0.3260     0.4070 C5            1 Compound
       7 C6         -20.4420     0.1270     2.5790 C6            1 Compound
       8 C7         -19.6540    -0.1160     1.3680 C7            1 Compound
       9 C8         -18.6420    -1.1720     1.7580 C8            1 Compound
      10 C9         -17.9220    -0.8700     3.0310 C9            1 Compound
      11 S10        -19.1450     0.2390     3.9430 S10           1 Compound
      12 H11        -24.5660    -0.1280     1.4670 H11           1 Compound
      13 H12        -23.0810     0.0090    -0.5720 H12           1 Compound
      14 H13        -18.7250    -2.1910     1.4040 H13           1 Compound
      15 C0          -9.1040     0.7290    -1.1980 C0            1 Compound
      16 C7         -10.7160     0.7500    -1.1640 C7            1 Compound
      17 C14        -11.1770     2.2160    -0.9410 C14           1 Compound
      18 S15        -11.9180     2.3800     0.7340 S15           1 Compound
      19 C16        -12.1980     0.5940     1.0270 C16           1 Compound
      20 C17        -11.4720    -0.0960    -0.1300 C17           1 Compound
      21 C6          -9.9120     3.0700    -1.1240 C6            1 Compound
      22 C7          -8.8410     2.1840    -0.6430 C7            1 Compound
      23 C17         -8.4820     2.6350     0.7610 C17           1 Compound
      24 C18         -8.2960     4.1270     0.8380 C18           1 Compound
      25 S19         -9.7510     4.6680    -0.1770 S19           1 Compound
      26 H20        -11.3840    -1.1700    -0.1720 H20           1 Compound
      27 H13         -8.5200     2.0060     1.6390 H13           1 Compound
      28 C21         -4.3560     4.4570     0.0170 C21           1 Compound
      29 N22         -3.1940     4.1040     0.7960 N22           1 Compound
      30 S23         -3.5210     4.7050     2.4340 S23           1 Compound
      31 N24         -5.2910     4.7430     2.2120 N24           1 Compound
      32 C25         -5.5700     4.1660     0.9080 C25           1 Compound
      33 C26         -6.9090     4.6730     0.2660 C26           1 Compound
      34 C27         -6.7580     6.2040     0.0800 C27           1 Compound
      35 F28         -7.8850     6.7740    -0.4700 F28           1 Compound
      36 C29         -5.5760     6.5050    -0.8610 C29           1 Compound
      37 C30         -4.2620     5.9580    -0.3320 C30           1 Compound
      38 H31         -5.4550     7.5970    -1.0260 H31           1 Compound
      39 H32         -3.4440     6.1000    -1.0830 H32           1 Compound
      40 C33        -15.7430     0.7870     2.9280 C33           1 Compound
      41 N34        -15.9880     1.4950     4.1730 N34           1 Compound
      42 S23        -14.7290     2.7510     4.3190 S23           1 Compound
      43 N24        -13.9910     2.3460     2.7640 N24           1 Compound
      44 C35        -14.2450     0.9360     2.6610 C35           1 Compound
      45 C26        -13.7330     0.2500     1.3700 C26           1 Compound
      46 C36        -13.9980    -1.2200     1.7780 C36           1 Compound
      47 F28        -13.3770    -2.1000     0.9250 F28           1 Compound
      48 C37        -15.5310    -1.5460     1.9550 C37           1 Compound
      49 C38        -16.2990    -0.6540     2.9940 C38           1 Compound
      50 H39        -15.6760    -2.6160     2.2120 H39           1 Compound
      51 C40        -17.6360    -3.2980    -4.8450 C40           1 Compound
      52 C41        -19.0520    -2.8610    -4.4430 C41           1 Compound
      53 C42        -19.1930    -2.3980    -2.9930 C42           1 Compound
      54 C43        -18.3950    -1.1100    -2.6580 C43           1 Compound
      55 C44        -18.5370    -0.6180    -1.1530 C44           1 Compound
      56 C45        -20.0880    -0.4310    -0.9480 C45           1 Compound
      57 C46        -17.4280     0.4020    -0.2670 C46           1 Compound
      58 C47        -17.2580     1.9340     0.3600 C47           1 Compound
      59 C48        -18.0900     2.4010     1.6230 C48           1 Compound
      60 C49        -18.4110     3.8650     2.0300 C49           1 Compound
      61 C41        -17.4730     4.5490     3.0150 C41           1 Compound
      62 C40        -16.2270     5.0850     2.3560 C40           1 Compound
      63 H50        -16.9240    -2.4550    -4.7900 H50           1 Compound
      64 H51        -17.6320    -3.6610    -5.8950 H51           1 Compound
      65 H51        -17.2950    -4.1280    -4.1910 H51           1 Compound
      66 H52        -19.7120    -3.7450    -4.6030 H52           1 Compound
      67 H52        -19.3900    -2.0600    -5.1430 H52           1 Compound
      68 H53        -20.2780    -2.2260    -2.8280 H53           1 Compound
      69 H53        -18.8740    -3.2210    -2.3160 H53           1 Compound
      70 H54        -18.6870    -0.3560    -3.3870 H54           1 Compound
      71 H54        -17.4010    -1.3830    -2.8980 H54           1 Compound
      72 H55        -18.3020    -1.5840    -0.6720 H55           1 Compound
      73 H56        -20.5790    -1.3800    -0.6170 H56           1 Compound
      74 H56        -20.6220    -0.1320    -1.8780 H56           1 Compound
      75 H57        -16.5150     0.2840    -0.7230 H57           1 Compound
      76 H57        -17.0420    -0.1830     0.5310 H57           1 Compound
      77 H53        -16.1920     2.0570     0.6530 H53           1 Compound
      78 H53        -17.3540     2.7180    -0.3910 H53           1 Compound
      79 H53        -17.8330     1.8520     2.5070 H53           1 Compound
      80 H53        -19.0870     2.1400     1.4470 H53           1 Compound
      81 H53        -18.6690     4.5040     1.1590 H53           1 Compound
      82 H53        -19.3490     3.7990     2.6410 H53           1 Compound
      83 H52        -17.2540     3.8580     3.8570 H52           1 Compound
      84 H52        -18.0080     5.4210     3.4540 H52           1 Compound
      85 H51        -16.5170     5.8400     1.5960 H51           1 Compound
      86 H51        -15.6560     4.2680     1.8780 H51           1 Compound
      87 H51        -15.6040     5.5830     3.1310 H51           1 Compound
      88 C58        -16.7690     5.7750    -3.8080 C58           1 Compound
      89 C59        -18.2020     5.5010    -4.3020 C59           1 Compound
      90 C42        -18.5680     4.0090    -4.1860 C42           1 Compound
      91 C43        -18.8970     3.6010    -2.7270 C43           1 Compound
      92 C44        -18.7310     2.0720    -2.3450 C44           1 Compound
      93 C60        -19.6910     1.9540    -0.9570 C60           1 Compound
      94 C43        -17.0990     1.7630    -2.7160 C43           1 Compound
      95 C47        -15.6150     1.0470    -2.6590 C47           1 Compound
      96 C61        -15.1580    -0.4710    -2.8980 C61           1 Compound
      97 C49        -15.2200    -1.5160    -1.7100 C49           1 Compound
      98 C41        -14.9020    -2.9800    -2.0660 C41           1 Compound
      99 C40        -15.2180    -3.9400    -0.8910 C40           1 Compound
     100 H51        -16.6330     5.5190    -2.7380 H51           1 Compound
     101 H51        -16.5180     6.8470    -3.9440 H51           1 Compound
     102 H51        -16.0440     5.1780    -4.4050 H51           1 Compound
     103 H52        -18.2230     5.7870    -5.3750 H52           1 Compound
     104 H52        -18.9360     6.1330    -3.7560 H52           1 Compound
     105 H53        -19.4650     3.7750    -4.7970 H53           1 Compound
     106 H53        -17.7200     3.4730    -4.6420 H53           1 Compound
     107 H54        -19.9200     3.9900    -2.5300 H54           1 Compound
     108 H54        -18.2480     4.1600    -2.0190 H54           1 Compound
     109 H55        -19.3360     1.5180    -3.0820 H55           1 Compound
     110 H62        -20.6670     2.1980    -1.4400 H62           1 Compound
     111 H62        -19.5830     2.8800    -0.3710 H62           1 Compound
     112 H57        -16.6600     2.7630    -2.5120 H57           1 Compound
     113 H57        -17.2230     1.6380    -3.8080 H57           1 Compound
     114 H53        -15.0540     1.5840    -3.4630 H53           1 Compound
     115 H53        -15.0810     1.3800    -1.7400 H53           1 Compound
     116 H53        -14.0680    -0.4370    -3.1250 H53           1 Compound
     117 H53        -15.6190    -0.8400    -3.8320 H53           1 Compound
     118 H53        -14.5650    -1.1630    -0.8990 H53           1 Compound
     119 H53        -16.2040    -1.6290    -1.2760 H53           1 Compound
     120 H52        -13.8470    -3.0950    -2.3820 H52           1 Compound
     121 H52        -15.5650    -3.2890    -2.8940 H52           1 Compound
     122 H51        -16.2740    -3.8320    -0.5530 H51           1 Compound
     123 H51        -14.5700    -3.7680    -0.0180 H51           1 Compound
     124 H51        -15.0720    -4.9960    -1.1990 H51           1 Compound
     125 C58         -4.5100    -3.3990     1.7290 C58           1 Compound
     126 C59         -5.9930    -3.5250     1.3780 C59           1 Compound
     127 C42         -6.7190    -2.1730     1.1840 C42           1 Compound
     128 C43         -6.2310    -1.3540    -0.0470 C43           1 Compound
     129 C44         -6.9020     0.0660    -0.1800 C44           1 Compound
     130 C60         -8.4540    -0.2110    -0.2560 C60           1 Compound
     131 C46         -6.2520     1.4410    -0.9780 C46           1 Compound
     132 C63         -6.5500     2.2250    -2.3750 C63           1 Compound
     133 C61         -5.8750     3.5480    -2.7570 C61           1 Compound
     134 C49         -6.6340     4.1420    -3.9890 C49           1 Compound
     135 C41         -6.3080     5.5930    -4.3350 C41           1 Compound
     136 C40         -4.8810     5.7820    -4.8120 C40           1 Compound
     137 H51         -3.9350    -2.9310     0.9080 H51           1 Compound
     138 H51         -4.0770    -4.4070     1.8980 H51           1 Compound
     139 H51         -4.3880    -2.8110     2.6630 H51           1 Compound
     140 H52         -6.4780    -4.0520     2.2290 H52           1 Compound
     141 H52         -6.1090    -4.1540     0.4700 H52           1 Compound
     142 H53         -7.7980    -2.4060     1.0780 H53           1 Compound
     143 H53         -6.5880    -1.5680     2.1080 H53           1 Compound
     144 H54         -6.3380    -1.9990    -0.9280 H54           1 Compound
     145 H54         -5.1920    -1.2710     0.1280 H54           1 Compound
     146 H55         -6.7710     0.4210     0.8600 H55           1 Compound
     147 H62         -8.9030    -0.1720     0.7610 H62           1 Compound
     148 H62         -8.6840    -1.2330    -0.6430 H62           1 Compound
     149 H54         -5.2120     1.4720    -0.9520 H54           1 Compound
     150 H54         -6.3740     2.2130    -0.2490 H54           1 Compound
     151 H53         -6.4050     1.6670    -3.2850 H53           1 Compound
     152 H53         -7.5670     2.5490    -2.4190 H53           1 Compound
     153 H53         -4.7920     3.4090    -2.9570 H53           1 Compound
     154 H53         -6.0030     4.2560    -1.9520 H53           1 Compound
     155 H53         -6.4950     3.4870    -4.8760 H53           1 Compound
     156 H53         -7.7250     4.1680    -3.7640 H53           1 Compound
     157 H52         -6.5110     6.2420    -3.4570 H52           1 Compound
     158 H52         -6.9940     5.9110    -5.1530 H52           1 Compound
     159 H51         -4.7000     5.1530    -5.7100 H51           1 Compound
     160 H51         -4.1670     5.5130    -4.0090 H51           1 Compound
     161 H51         -4.7350     6.8490    -5.0850 H51           1 Compound
     162 C58         -4.6890    -1.2110    -6.8560 C58           1 Compound
     163 C59         -6.0570    -1.9110    -6.7650 C59           1 Compound
     164 C42         -6.5330    -2.0770    -5.3040 C42           1 Compound
     165 C43         -7.1810    -0.7960    -4.6910 C43           1 Compound
     166 C44         -7.0550    -0.6200    -3.1110 C44           1 Compound
     167 C45         -8.4770     0.2630    -2.6920 C45           1 Compound
     168 C46         -5.3530    -0.4260    -2.9320 C46           1 Compound
     169 C47         -3.9150     0.0410    -2.2620 C47           1 Compound
     170 C61         -3.2110    -0.3290    -0.8710 C61           1 Compound
     171 C49         -3.5070     0.5570     0.4080 C49           1 Compound
     172 C41         -2.9250     0.1020     1.7500 C41           1 Compound
     173 C40         -3.3530     1.0750     2.8670 C40           1 Compound
     174 H51         -4.7180    -0.1830    -6.4440 H51           1 Compound
     175 H51         -4.3550    -1.1610    -7.9160 H51           1 Compound
     176 H51         -3.9240    -1.7970    -6.2980 H51           1 Compound
     177 H52         -5.9050    -2.9220    -7.2010 H52           1 Compound
     178 H52         -6.8160    -1.3800    -7.3790 H52           1 Compound
     179 H53         -7.3080    -2.8690    -5.2470 H53           1 Compound
     180 H53         -5.6630    -2.4740    -4.7570 H53           1 Compound
     181 H54         -8.2320    -0.7940    -5.0480 H54           1 Compound
     182 H54         -6.7550     0.1180    -5.1690 H54           1 Compound
     183 H55         -7.3010    -1.6000    -2.6750 H55           1 Compound
     184 H56         -9.2450    -0.4750    -3.0140 H56           1 Compound
     185 H56         -8.6670     1.0790    -3.4210 H56           1 Compound
     186 H57         -5.1050     0.1170    -3.8710 H57           1 Compound
     187 H57         -5.0490    -1.4740    -3.0760 H57           1 Compound
     188 H53         -3.1680    -0.3580    -2.9920 H53           1 Compound
     189 H53         -3.7720     1.1380    -2.3970 H53           1 Compound
     190 H53         -2.1200    -0.1580    -1.0140 H53           1 Compound
     191 H53         -3.2920    -1.4170    -0.7000 H53           1 Compound
     192 H53         -3.1850     1.5950     0.1930 H53           1 Compound
     193 H53         -4.5570     0.5880     0.6870 H53           1 Compound
     194 H52         -1.8210     0.0320     1.7160 H52           1 Compound
     195 H52         -3.3480    -0.8880     1.9980 H52           1 Compound
     196 H51         -4.4600     1.2200     2.8860 H51           1 Compound
     197 H51         -2.8760     2.0580     2.7050 H51           1 Compound
     198 H51         -3.0480     0.7000     3.8640 H51           1 Compound
@<TRIPOS>BOND
       1        2        1 1
       2        8        1 1
       3       56        1 1
       4       93        1 1
       5        3        2 1
       6        6        2 1
       7        4        3 1
       8        7        3 1
       9        5        4 1
      10        6        5 1
      11       12        5 1
      12       13        6 1
      13        8        7 1
      14       11        7 1
      15        9        8 1
      16       10        9 1
      17       14        9 1
      18       11       10 1
      19       49       10 1
      20       16       15 1
      21       22       15 1
      22      130       15 1
      23      167       15 1
      24       17       16 1
      25       20       16 1
      26       18       17 1
      27       21       17 1
      28       19       18 1
      29       20       19 1
      30       45       19 1
      31       26       20 1
      32       22       21 1
      33       25       21 1
      34       23       22 1
      35       24       23 1
      36       27       23 1
      37       25       24 1
      38       33       24 1
      39       29       28 1
      40       32       28 1
      41       37       28 1
      42       30       29 1
      43       31       30 1
      44       32       31 1
      45       33       32 1
      46       34       33 1
      47       35       34 1
      48       36       34 1
      49       37       36 1
      50       38       36 1
      51       39       37 1
      52       41       40 1
      53       44       40 1
      54       49       40 1
      55       42       41 1
      56       43       42 1
      57       44       43 1
      58       45       44 1
      59       46       45 1
      60       47       46 1
      61       48       46 1
      62       49       48 1
      63       50       48 1
      64       52       51 1
      65       63       51 1
      66       64       51 1
      67       65       51 1
      68       53       52 1
      69       66       52 1
      70       67       52 1
      71       54       53 1
      72       68       53 1
      73       69       53 1
      74       55       54 1
      75       70       54 1
      76       71       54 1
      77       56       55 1
      78       57       55 1
      79       72       55 1
      80       73       56 1
      81       74       56 1
      82       58       57 1
      83       75       57 1
      84       76       57 1
      85       59       58 1
      86       77       58 1
      87       78       58 1
      88       60       59 1
      89       79       59 1
      90       80       59 1
      91       61       60 1
      92       81       60 1
      93       82       60 1
      94       62       61 1
      95       83       61 1
      96       84       61 1
      97       85       62 1
      98       86       62 1
      99       87       62 1
     100       89       88 1
     101      100       88 1
     102      101       88 1
     103      102       88 1
     104       90       89 1
     105      103       89 1
     106      104       89 1
     107       91       90 1
     108      105       90 1
     109      106       90 1
     110       92       91 1
     111      107       91 1
     112      108       91 1
     113       93       92 1
     114       94       92 1
     115      109       92 1
     116      110       93 1
     117      111       93 1
     118       95       94 1
     119      112       94 1
     120      113       94 1
     121       96       95 1
     122      114       95 1
     123      115       95 1
     124       97       96 1
     125      116       96 1
     126      117       96 1
     127       98       97 1
     128      118       97 1
     129      119       97 1
     130       99       98 1
     131      120       98 1
     132      121       98 1
     133      122       99 1
     134      123       99 1
     135      124       99 1
     136      126      125 1
     137      137      125 1
     138      138      125 1
     139      139      125 1
     140      127      126 1
     141      140      126 1
     142      141      126 1
     143      128      127 1
     144      142      127 1
     145      143      127 1
     146      129      128 1
     147      144      128 1
     148      145      128 1
     149      130      129 1
     150      131      129 1
     151      146      129 1
     152      147      130 1
     153      148      130 1
     154      132      131 1
     155      149      131 1
     156      150      131 1
     157      133      132 1
     158      151      132 1
     159      152      132 1
     160      134      133 1
     161      153      133 1
     162      154      133 1
     163      135      134 1
     164      155      134 1
     165      156      134 1
     166      136      135 1
     167      157      135 1
     168      158      135 1
     169      159      136 1
     170      160      136 1
     171      161      136 1
     172      163      162 1
     173      174      162 1
     174      175      162 1
     175      176      162 1
     176      164      163 1
     177      177      163 1
     178      178      163 1
     179      165      164 1
     180      179      164 1
     181      180      164 1
     182      166      165 1
     183      181      165 1
     184      182      165 1
     185      167      166 1
     186      168      166 1
     187      183      166 1
     188      184      167 1
     189      185      167 1
     190      169      168 1
     191      186      168 1
     192      187      168 1
     193      170      169 1
     194      188      169 1
     195      189      169 1
     196      171      170 1
     197      190      170 1
     198      191      170 1
     199      172      171 1
     200      192      171 1
     201      193      171 1
     202      173      172 1
     203      194      172 1
     204      195      172 1
     205      196      173 1
     206      197      173 1
     207      198      173 1
@<TRIPOS>SUBSTRUCTURE
       1 Compound        1 RESIDUE    0 **** ROOT      0
