@<TRIPOS>MOLECULE
RES
246 255 1 0 1
SMALL
NO_CHARGES
@<TRIPOS>CRYSIN
   32.9473    21.1010    21.6188    90.0000    90.0000    90.0000 1 1
@<TRIPOS>ATOM
       1 C0           9.5632    10.0591    10.5713 C0            1 RES     
       2 C1           8.2433    10.6064    10.9489 C1            1 RES     
       3 C1           8.3282    11.8444    11.5191 C1            1 RES     
       4 S2           6.8326    12.5259    11.6932 S2            1 RES     
       5 C1           6.0566    11.1562    11.0360 C1            1 RES     
       6 C1           6.9700    10.1729    10.6965 C1            1 RES     
       7 C1           9.7008    12.3299    11.6950 C1            1 RES     
       8 C1          10.3332    10.9931    11.5299 C1            1 RES     
       9 C1          11.2458    10.6808    12.4519 C1            1 RES     
      10 C1          11.4463    11.6718    13.3782 C1            1 RES     
      11 S2          10.1510    12.9065    13.3675 S2            1 RES     
      12 H3           6.7392     9.2209    10.2452 H3            1 RES     
      13 H3          11.7337     9.7320    12.5522 H3            1 RES     
      14 C0          -1.0613     9.1789    15.3235 C0            1 RES     
      15 C1          -2.4409     9.6395    14.7044 C1            1 RES     
      16 C1          -2.4474    10.8641    14.1434 C1            1 RES     
      17 S2          -3.8098    11.1554    13.2563 S2            1 RES     
      18 C1          -4.4338     9.5965    13.3916 C1            1 RES     
      19 C1          -3.5638     8.8682    14.2532 C1            1 RES     
      20 C1          -1.2004    10.8794    13.5634 C1            1 RES     
      21 C1          -0.5357     9.7432    13.9649 C1            1 RES     
      22 C1           0.5273     9.4825    13.1389 C1            1 RES     
      23 C1           0.6326    10.4459    12.1164 C1            1 RES     
      24 S2          -0.6212    11.5858    12.1843 S2            1 RES     
      25 H3          -3.6593     7.8097    14.4229 H3            1 RES     
      26 H3           1.2305     8.6988    13.3628 H3            1 RES     
      27 C1           2.7374     9.5074    11.2284 C1            1 RES     
      28 F4           2.2900     8.2318    11.3664 F4            1 RES     
      29 C1           4.0816     9.7012    10.9916 C1            1 RES     
      30 C1           4.6177    10.9982    10.9622 C1            1 RES     
      31 C1           3.7643    12.1056    10.9955 C1            1 RES     
      32 N5           4.1774    13.3989    10.9058 N5            1 RES     
      33 S2           2.7769    14.2460    11.0955 S2            1 RES     
      34 N5           1.6576    13.0615    11.3301 N5            1 RES     
      35 C1           2.3871    11.9179    11.2120 C1            1 RES     
      36 C1           1.8948    10.6155    11.4208 C1            1 RES     
      37 H3           4.7050     8.8179    10.9541 H3            1 RES     
      38 C1          -6.3384    10.0840    11.7628 C1            1 RES     
      39 F4          -6.1435    11.4191    11.8891 F4            1 RES     
      40 C1          -7.3375     9.6932    10.8599 C1            1 RES     
      41 C1          -7.6166     8.3502    10.6345 C1            1 RES     
      42 C1          -6.8891     7.3893    11.3257 C1            1 RES     
      43 N5          -7.0860     6.0598    11.1476 N5            1 RES     
      44 S2          -5.9633     5.4030    12.1617 S2            1 RES     
      45 N5          -5.2182     6.7179    12.8375 N5            1 RES     
      46 C1          -5.8668     7.7626    12.2599 C1            1 RES     
      47 C1          -5.5668     9.1290    12.4990 C1            1 RES     
      48 H3          -7.8934    10.4499    10.3183 H3            1 RES     
      49 C0           9.6652    10.4284     9.0307 C0            1 RES     
      50 C0           8.6545     9.8621     7.9577 C0            1 RES     
      51 C0           8.9823     8.5846     7.1275 C0            1 RES     
      52 C0           8.6923     7.1920     7.7351 C0            1 RES     
      53 C0           8.8852     6.0178     6.7253 C0            1 RES     
      54 C0          10.3365     5.8468     6.1766 C0            1 RES     
      55 C0          11.3447     5.5106     7.3052 C0            1 RES     
      56 C0          12.8359     5.5450     6.9273 C0            1 RES     
      57 C0          13.2756     6.8894     6.3315 C0            1 RES     
      58 C0          14.7939     6.9595     6.2198 C0            1 RES     
      59 C0          10.4335     4.8487     4.9839 C0            1 RES     
      60 C0          10.5804     3.3360     5.2825 C0            1 RES     
      61 C0           9.4606     2.6406     6.0591 C0            1 RES     
      62 C0           8.1190     2.6510     5.3167 C0            1 RES     
      63 C0           7.0104     1.9272     6.0987 C0            1 RES     
      64 C0           7.2892     0.4370     6.3152 C0            1 RES     
      65 H6           9.4815    11.5270     9.0155 H6            1 RES     
      66 H6          10.6552    10.3411     8.6050 H6            1 RES     
      67 H6           7.5981     9.8732     8.2750 H6            1 RES     
      68 H6           8.6891    10.6400     7.1642 H6            1 RES     
      69 H6          10.0251     8.6689     6.7678 H6            1 RES     
      70 H6           8.3226     8.6386     6.2319 H6            1 RES     
      71 H6           7.6313     7.1792     8.0685 H6            1 RES     
      72 H6           9.3189     6.9938     8.6050 H6            1 RES     
      73 H6           8.5507     5.0881     7.2206 H6            1 RES     
      74 H6           8.1996     6.2031     5.8695 H6            1 RES     
      75 H6          10.5798     6.8321     5.7373 H6            1 RES     
      76 H6          11.1057     4.5228     7.7503 H6            1 RES     
      77 H6          11.2227     6.2280     8.1144 H6            1 RES     
      78 H6          13.4001     5.3603     7.8691 H6            1 RES     
      79 H6          13.0948     4.7367     6.2151 H6            1 RES     
      80 H6          12.9365     7.7247     6.9698 H6            1 RES     
      81 H6          12.8273     7.0212     5.3250 H6            1 RES     
      82 H6          15.1752     6.1350     5.5829 H6            1 RES     
      83 H6          15.0910     7.9274     5.7693 H6            1 RES     
      84 H6          15.2515     6.8861     7.2306 H6            1 RES     
      85 H6          11.3640     5.1078     4.4320 H6            1 RES     
      86 H6           9.5985     5.0350     4.2753 H6            1 RES     
      87 H6          10.7042     2.8119     4.3094 H6            1 RES     
      88 H6          11.5190     3.1690     5.8475 H6            1 RES     
      89 H6           9.7917     1.5905     6.1932 H6            1 RES     
      90 H6           9.3571     3.0792     7.0692 H6            1 RES     
      91 H6           8.2393     2.1735     4.3194 H6            1 RES     
      92 H6           7.7956     3.7015     5.1620 H6            1 RES     
      93 H6           6.0666     2.0191     5.5199 H6            1 RES     
      94 H6           6.8639     2.4207     7.0841 H6            1 RES     
      95 H6           8.1831     0.2788     6.9521 H6            1 RES     
      96 H6           7.4365    -0.0743     5.3403 H6            1 RES     
      97 H6           6.4259    -0.0277     6.8351 H6            1 RES     
      98 C0           9.6862     8.5536    10.8957 C0            1 RES     
      99 C0          11.0524     7.8330    10.6849 C0            1 RES     
     100 C0          11.9506     8.2812     9.5082 C0            1 RES     
     101 C0          12.7874     9.5330     9.8401 C0            1 RES     
     102 C0          13.7292    10.0136     8.7381 C0            1 RES     
     103 C0          13.1818    10.9482     7.6026 C0            1 RES     
     104 C0          12.6271    12.3115     8.1399 C0            1 RES     
     105 C0          12.0479    13.2862     7.0807 C0            1 RES     
     106 C0          10.8036    12.7582     6.3500 C0            1 RES     
     107 C0          10.2488    13.7945     5.3720 C0            1 RES     
     108 C0          14.2798    11.1837     6.5135 C0            1 RES     
     109 C0          15.4951    12.1197     6.8225 C0            1 RES     
     110 C0          16.4142    11.7621     8.0098 C0            1 RES     
     111 C0          16.9905    10.3324     7.9224 C0            1 RES     
     112 C0          17.5610     9.8223     9.2549 C0            1 RES     
     113 C0          18.7413    10.6333     9.7712 C0            1 RES     
     114 H6           9.3673     8.3530    11.9477 H6            1 RES     
     115 H6           8.9107     8.0719    10.2919 H6            1 RES     
     116 H6          11.6710     7.8517    11.6019 H6            1 RES     
     117 H6          10.7971     6.7584    10.5595 H6            1 RES     
     118 H6          11.3678     8.3695     8.5818 H6            1 RES     
     119 H6          12.6983     7.4752     9.3477 H6            1 RES     
     120 H6          13.4147     9.2330    10.7089 H6            1 RES     
     121 H6          12.2204    10.4002    10.1480 H6            1 RES     
     122 H6          14.4714    10.5715     9.2992 H6            1 RES     
     123 H6          14.2114     9.1123     8.3158 H6            1 RES     
     124 H6          12.3649    10.3842     7.1035 H6            1 RES     
     125 H6          13.4499    12.8401     8.6639 H6            1 RES     
     126 H6          11.8394    12.1569     8.8967 H6            1 RES     
     127 H6          11.7584    14.2205     7.6114 H6            1 RES     
     128 H6          12.8246    13.5603     6.3387 H6            1 RES     
     129 H6          10.0104    12.5412     7.0874 H6            1 RES     
     130 H6          11.0469    11.8327     5.7880 H6            1 RES     
     131 H6          11.0027    14.0428     4.5958 H6            1 RES     
     132 H6           9.3430    13.3904     4.8703 H6            1 RES     
     133 H6           9.9617    14.7234     5.9111 H6            1 RES     
     134 H6          13.7784    11.6252     5.6255 H6            1 RES     
     135 H6          14.6470    10.1990     6.1674 H6            1 RES     
     136 H6          16.1231    12.1428     5.9068 H6            1 RES     
     137 H6          15.1268    13.1545     6.9883 H6            1 RES     
     138 H6          17.2535    12.4872     8.0573 H6            1 RES     
     139 H6          15.8685    11.9411     8.9485 H6            1 RES     
     140 H6          17.7435    10.2805     7.1089 H6            1 RES     
     141 H6          16.1996     9.6131     7.6636 H6            1 RES     
     142 H6          17.8921     8.7705     9.1124 H6            1 RES     
     143 H6          16.7579     9.8206    10.0259 H6            1 RES     
     144 H6          18.4367    11.6783     9.9848 H6            1 RES     
     145 H6          19.5638    10.6237     9.0270 H6            1 RES     
     146 H6          19.1060    10.1776    10.7170 H6            1 RES     
     147 C0          -1.6193     8.5932    16.7054 C0            1 RES     
     148 C0          -1.8230     7.0850    16.8104 C0            1 RES     
     149 C0          -0.6125     6.1503    16.5834 C0            1 RES     
     150 C0           0.2924     5.8012    17.8081 C0            1 RES     
     151 C0           1.2973     4.6856    17.4361 C0            1 RES     
     152 C0           2.6867     5.1092    16.8338 C0            1 RES     
     153 C0           3.7364     5.2670    17.9850 C0            1 RES     
     154 C0           5.2402     5.3753    17.6170 C0            1 RES     
     155 C0           5.6524     6.5829    16.7759 C0            1 RES     
     156 C0           7.1650     6.5747    16.5423 C0            1 RES     
     157 C0           3.1687     4.1513    15.7009 C0            1 RES     
     158 C0           3.5433     2.6904    16.0412 C0            1 RES     
     159 C0           2.4004     1.7820    16.5011 C0            1 RES     
     160 C0           1.2953     1.6131    15.4399 C0            1 RES     
     161 C0           0.0891     0.8348    15.9797 C0            1 RES     
     162 C0           0.4280    -0.5980    16.3802 C0            1 RES     
     163 H6          -1.1643     8.9903    17.6436 H6            1 RES     
     164 H6          -2.6333     9.0339    16.9300 H6            1 RES     
     165 H6          -2.3114     6.8432    17.7813 H6            1 RES     
     166 H6          -2.5566     6.8398    16.0240 H6            1 RES     
     167 H6          -0.0555     6.4505    15.6777 H6            1 RES     
     168 H6          -1.0940     5.1814    16.3276 H6            1 RES     
     169 H6          -0.4100     5.3787    18.5605 H6            1 RES     
     170 H6           0.8241     6.6038    18.3358 H6            1 RES     
     171 H6           1.4835     4.0798    18.3459 H6            1 RES     
     172 H6           0.7544     4.0231    16.7441 H6            1 RES     
     173 H6           2.5685     6.0748    16.3019 H6            1 RES     
     174 H6           3.6858     4.3505    18.6130 H6            1 RES     
     175 H6           3.4434     6.1236    18.6296 H6            1 RES     
     176 H6           5.8052     5.4134    18.5757 H6            1 RES     
     177 H6           5.5715     4.4601    17.0907 H6            1 RES     
     178 H6           5.3962     7.5018    17.3120 H6            1 RES     
     179 H6           5.1312     6.5834    15.7980 H6            1 RES     
     180 H6           7.4666     5.6651    15.9807 H6            1 RES     
     181 H6           7.4656     7.4703    15.9599 H6            1 RES     
     182 H6           7.7077     6.5870    17.5128 H6            1 RES     
     183 H6           4.0800     4.6030    15.2575 H6            1 RES     
     184 H6           2.4225     4.1687    14.8809 H6            1 RES     
     185 H6           3.9813     2.2385    15.1238 H6            1 RES     
     186 H6           4.3290     2.6741    16.8205 H6            1 RES     
     187 H6           2.8421     0.7886    16.7212 H6            1 RES     
     188 H6           1.9836     2.1582    17.4493 H6            1 RES     
     189 H6           1.7114     1.1156    14.5375 H6            1 RES     
     190 H6           0.9044     2.5960    15.1172 H6            1 RES     
     191 H6          -0.6876     0.8033    15.1858 H6            1 RES     
     192 H6          -0.3356     1.3737    16.8559 H6            1 RES     
     193 H6           1.1585    -0.6183    17.2147 H6            1 RES     
     194 H6           0.8430    -1.1477    15.5096 H6            1 RES     
     195 H6          -0.4946    -1.1081    16.7251 H6            1 RES     
     196 C0           0.3060     9.8708    16.0225 C0            1 RES     
     197 C0           1.2693     8.8433    16.7467 C0            1 RES     
     198 C0           2.7579     9.1600    17.0744 C0            1 RES     
     199 C0           3.0988     9.9803    18.3583 C0            1 RES     
     200 C0           4.6601    10.1764    18.5751 C0            1 RES     
     201 C0           5.2500    11.1308    17.5070 C0            1 RES     
     202 C0           4.8401    12.5919    17.8433 C0            1 RES     
     203 C0           4.5771    13.4704    16.6156 C0            1 RES     
     204 C0           3.3100    13.0008    15.8650 C0            1 RES     
     205 C0           2.9328    13.9446    14.7479 C0            1 RES     
     206 C0           6.7441    10.9733    17.0684 C0            1 RES     
     207 C0           7.9083    11.5723    17.8933 C0            1 RES     
     208 C0           8.4346    10.7991    19.1128 C0            1 RES     
     209 C0           9.0527     9.4397    18.7176 C0            1 RES     
     210 C0           9.8863     8.7857    19.8364 C0            1 RES     
     211 C0          11.1952     9.5338    20.1276 C0            1 RES     
     212 H6           0.0253    10.6837    16.7182 H6            1 RES     
     213 H6           1.0700    10.4061    15.3887 H6            1 RES     
     214 H6           0.8282     8.5151    17.6889 H6            1 RES     
     215 H6           1.3621     8.0101    16.0309 H6            1 RES     
     216 H6           3.2039     9.5468    16.1438 H6            1 RES     
     217 H6           3.2373     8.1774    17.2680 H6            1 RES     
     218 H6           2.7040     9.4114    19.2286 H6            1 RES     
     219 H6           2.5642    10.9472    18.3305 H6            1 RES     
     220 H6           4.8870    10.5792    19.5873 H6            1 RES     
     221 H6           5.1413     9.1871    18.5332 H6            1 RES     
     222 H6           4.7543    10.8099    16.5919 H6            1 RES     
     223 H6           5.5881    13.0450    18.5228 H6            1 RES     
     224 H6           3.9017    12.6271    18.4309 H6            1 RES     
     225 H6           4.3874    14.4991    16.9885 H6            1 RES     
     226 H6           5.4603    13.4954    15.9450 H6            1 RES     
     227 H6           2.4569    12.9449    16.5806 H6            1 RES     
     228 H6           3.4495    11.9927    15.4246 H6            1 RES     
     229 H6           3.7513    13.9944    14.0032 H6            1 RES     
     230 H6           2.0110    13.5631    14.2519 H6            1 RES     
     231 H6           2.7259    14.9533    15.1564 H6            1 RES     
     232 H6           6.8003    11.5331    16.1090 H6            1 RES     
     233 H6           6.9612     9.9155    16.8032 H6            1 RES     
     234 H6           8.7789    11.6459    17.2002 H6            1 RES     
     235 H6           7.6764    12.6163    18.1780 H6            1 RES     
     236 H6           9.2408    11.4408    19.5261 H6            1 RES     
     237 H6           7.6570    10.6747    19.8930 H6            1 RES     
     238 H6           9.7202     9.5538    17.8336 H6            1 RES     
     239 H6           8.2252     8.7570    18.4379 H6            1 RES     
     240 H6          10.1702     7.7644    19.4997 H6            1 RES     
     241 H6           9.2835     8.6918    20.7641 H6            1 RES     
     242 H6          11.0139    10.5563    20.5137 H6            1 RES     
     243 H6          11.8134     9.6000    19.2062 H6            1 RES     
     244 H6          11.7792     8.9816    20.8941 H6            1 RES     
     245 H7          12.1338    11.5563    14.2061 H7            1 RES     
     246 H3          -8.3835     8.0690     9.9217 H3            1 RES     
@<TRIPOS>BOND
       1        1        2 1
       2        1        8 1
       3        1       49 1
       4        1       98 1
       5        2        3 1
       6        2        6 1
       7        3        4 1
       8        3        7 1
       9        4        5 1
      10        5        6 1
      11        5       30 1
      12        6       12 1
      13        7        8 1
      14        7       11 1
      15        8        9 1
      16        9       10 1
      17        9       13 1
      18       10       11 1
      19       10      245 1
      20       14       15 1
      21       14       21 1
      22       14      147 1
      23       14      196 1
      24       15       16 1
      25       15       19 1
      26       16       17 1
      27       16       20 1
      28       17       18 1
      29       18       19 1
      30       18       47 1
      31       19       25 1
      32       20       21 1
      33       20       24 1
      34       21       22 1
      35       22       23 1
      36       22       26 1
      37       23       24 1
      38       23       36 1
      39       27       28 1
      40       27       29 1
      41       27       36 1
      42       29       30 1
      43       29       37 1
      44       30       31 1
      45       31       32 1
      46       31       35 1
      47       32       33 1
      48       33       34 1
      49       34       35 1
      50       35       36 1
      51       38       39 1
      52       38       40 1
      53       38       47 1
      54       40       41 1
      55       40       48 1
      56       41       42 1
      57       41      246 1
      58       42       43 1
      59       42       46 1
      60       43       44 1
      61       44       45 1
      62       45       46 1
      63       46       47 1
      64       49       50 1
      65       49       65 1
      66       49       66 1
      67       50       51 1
      68       50       67 1
      69       50       68 1
      70       51       52 1
      71       51       69 1
      72       51       70 1
      73       52       53 1
      74       52       71 1
      75       52       72 1
      76       53       54 1
      77       53       73 1
      78       53       74 1
      79       54       55 1
      80       54       59 1
      81       54       75 1
      82       55       56 1
      83       55       76 1
      84       55       77 1
      85       56       57 1
      86       56       78 1
      87       56       79 1
      88       57       58 1
      89       57       80 1
      90       57       81 1
      91       58       82 1
      92       58       83 1
      93       58       84 1
      94       59       60 1
      95       59       85 1
      96       59       86 1
      97       60       61 1
      98       60       87 1
      99       60       88 1
     100       61       62 1
     101       61       89 1
     102       61       90 1
     103       62       63 1
     104       62       91 1
     105       62       92 1
     106       63       64 1
     107       63       93 1
     108       63       94 1
     109       64       95 1
     110       64       96 1
     111       64       97 1
     112       98       99 1
     113       98      114 1
     114       98      115 1
     115       99      100 1
     116       99      116 1
     117       99      117 1
     118      100      101 1
     119      100      118 1
     120      100      119 1
     121      101      102 1
     122      101      120 1
     123      101      121 1
     124      102      103 1
     125      102      122 1
     126      102      123 1
     127      103      104 1
     128      103      108 1
     129      103      124 1
     130      104      105 1
     131      104      125 1
     132      104      126 1
     133      105      106 1
     134      105      127 1
     135      105      128 1
     136      106      107 1
     137      106      129 1
     138      106      130 1
     139      107      131 1
     140      107      132 1
     141      107      133 1
     142      108      109 1
     143      108      134 1
     144      108      135 1
     145      109      110 1
     146      109      136 1
     147      109      137 1
     148      110      111 1
     149      110      138 1
     150      110      139 1
     151      111      112 1
     152      111      140 1
     153      111      141 1
     154      112      113 1
     155      112      142 1
     156      112      143 1
     157      113      144 1
     158      113      145 1
     159      113      146 1
     160      147      148 1
     161      147      163 1
     162      147      164 1
     163      148      149 1
     164      148      165 1
     165      148      166 1
     166      149      150 1
     167      149      167 1
     168      149      168 1
     169      150      151 1
     170      150      169 1
     171      150      170 1
     172      151      152 1
     173      151      171 1
     174      151      172 1
     175      152      153 1
     176      152      157 1
     177      152      173 1
     178      153      154 1
     179      153      174 1
     180      153      175 1
     181      154      155 1
     182      154      176 1
     183      154      177 1
     184      155      156 1
     185      155      178 1
     186      155      179 1
     187      156      180 1
     188      156      181 1
     189      156      182 1
     190      157      158 1
     191      157      183 1
     192      157      184 1
     193      158      159 1
     194      158      185 1
     195      158      186 1
     196      159      160 1
     197      159      187 1
     198      159      188 1
     199      160      161 1
     200      160      189 1
     201      160      190 1
     202      161      162 1
     203      161      191 1
     204      161      192 1
     205      162      193 1
     206      162      194 1
     207      162      195 1
     208      196      197 1
     209      196      212 1
     210      196      213 1
     211      197      198 1
     212      197      214 1
     213      197      215 1
     214      198      199 1
     215      198      216 1
     216      198      217 1
     217      199      200 1
     218      199      218 1
     219      199      219 1
     220      200      201 1
     221      200      220 1
     222      200      221 1
     223      201      202 1
     224      201      206 1
     225      201      222 1
     226      202      203 1
     227      202      223 1
     228      202      224 1
     229      203      204 1
     230      203      225 1
     231      203      226 1
     232      204      205 1
     233      204      227 1
     234      204      228 1
     235      205      229 1
     236      205      230 1
     237      205      231 1
     238      206      207 1
     239      206      232 1
     240      206      233 1
     241      207      208 1
     242      207      234 1
     243      207      235 1
     244      208      209 1
     245      208      236 1
     246      208      237 1
     247      209      210 1
     248      209      238 1
     249      209      239 1
     250      210      211 1
     251      210      240 1
     252      210      241 1
     253      211      242 1
     254      211      243 1
     255      211      244 1
@<TRIPOS>SUBSTRUCTURE
       1 RES             1 RESIDUE    0 **** ROOT      0
