@<TRIPOS>MOLECULE
RES
148 152 1 0 1
SMALL
NO_CHARGES
@<TRIPOS>CRYSIN
   20.5470    21.8390    22.9990    90.0000    90.0000    90.0000  1  1
@<TRIPOS>ATOM
       1 C           -9.7040     0.1870     0.9410 C             1 RES     
       2 C          -10.2730     1.3310     1.7810 C             1 RES     
       3 C          -10.0580     0.9280     3.2520 C             1 RES     
       4 S          -11.6560     0.4100     3.9780 S             1 RES     
       5 C          -12.5230     1.1730     2.6300 C             1 RES     
       6 C          -11.7280     1.5570     1.5850 C             1 RES     
       7 C           -9.1040    -0.2610     3.2530 C             1 RES     
       8 C           -9.3110    -0.9550     1.9150 C             1 RES     
       9 C           -7.9950    -1.6370     1.6370 C             1 RES     
      10 C           -6.9010    -1.3350     2.6230 C             1 RES     
      11 S           -7.3470     0.2550     3.3760 S             1 RES     
      12 H          -13.6000     1.2690     2.6090 H             1 RES     
      13 H          -12.1330     1.9640     0.6680 H             1 RES     
      14 H           -8.0200    -2.6460     1.2470 H             1 RES     
      15 C           -4.4470    -1.7950     3.2850 C             1 RES     
      16 N           -4.7990    -2.9590     4.0520 N             1 RES     
      17 S           -3.2910    -3.4780     4.8480 S             1 RES     
      18 N           -2.2550    -2.4450     3.8400 N             1 RES     
      19 C           -3.0870    -2.0950     2.7220 C             1 RES     
      20 C           -2.5680    -0.8840     1.9640 C             1 RES     
      21 N           -3.4670    -0.6320     0.8470 N             1 RES     
      22 C           -4.8090    -0.3290     1.3430 C             1 RES     
      23 C           -5.4190    -1.5110     2.1390 C             1 RES     
      24 H           -1.5540    -1.0920     1.5600 H             1 RES     
      25 H           -5.3880    -0.1220     0.4600 H             1 RES     
      26 C          -10.2160    -0.0730    -0.5470 C             1 RES     
      27 C           -9.0900    -0.7560    -1.3750 C             1 RES     
      28 C           -7.8180     0.1310    -1.7170 C             1 RES     
      29 C           -7.4820     1.0910    -0.5370 C             1 RES     
      30 C           -6.3570     2.1480    -0.5870 C             1 RES     
      31 C           -6.2960     2.7810     0.8360 C             1 RES     
      32 C           -5.2730     3.8890     1.0950 C             1 RES     
      33 C           -3.8400     3.4870     0.7410 C             1 RES     
      34 C           -2.8400     4.5090     1.2990 C             1 RES     
      35 C           -1.4290     4.2350     0.7730 C             1 RES     
      36 C           -0.4130     5.1920     1.3900 C             1 RES     
      37 C           -6.6260    -0.7930    -2.1950 C             1 RES     
      38 C           -6.4330    -2.0780    -1.3430 C             1 RES     
      39 C           -5.1690    -2.9210    -1.5680 C             1 RES     
      40 C           -5.1510    -4.0640    -0.5170 C             1 RES     
      41 C           -3.9090    -4.9630    -0.6020 C             1 RES     
      42 C           -3.7870    -5.9510     0.5830 C             1 RES     
      43 C           -4.9480    -6.9590     0.6990 C             1 RES     
      44 C           -4.7960    -7.9400     1.8840 C             1 RES     
      45 C           -3.6080    -8.9050     1.7340 C             1 RES     
      46 C           -3.5540    -9.9040     2.8910 C             1 RES     
      47 C          -11.5900    -0.8170    -0.4760 C             1 RES     
      48 C          -11.9850    -1.9120    -1.5130 C             1 RES     
      49 C          -12.1540    -1.3790    -2.9710 C             1 RES     
      50 C          -12.3250    -2.5380    -3.9840 C             1 RES     
      51 C          -12.4610    -2.0550    -5.4360 C             1 RES     
      52 C          -12.6910    -3.2150    -6.4300 C             1 RES     
      53 C          -11.4970    -4.1810    -6.5300 C             1 RES     
      54 C          -11.7540    -5.2770    -7.5790 C             1 RES     
      55 C          -10.6040    -6.2940    -7.6860 C             1 RES     
      56 C           -9.2920    -5.6800    -8.1780 C             1 RES     
      57 C          -13.3190    -2.6090    -1.0680 C             1 RES     
      58 C          -13.4150    -3.0740     0.3990 C             1 RES     
      59 C          -12.2980    -4.0570     0.7870 C             1 RES     
      60 C          -12.4050    -4.5280     2.2450 C             1 RES     
      61 C          -12.1810    -3.3930     3.2680 C             1 RES     
      62 C          -12.1160    -3.9050     4.7180 C             1 RES     
      63 C          -13.4510    -4.4890     5.2160 C             1 RES     
      64 C          -13.3450    -5.1050     6.6230 C             1 RES     
      65 C          -12.9420    -4.1370     7.7490 C             1 RES     
      66 C          -13.9610    -3.0200     7.9690 C             1 RES     
      67 H           -9.4360    -1.1590    -2.3390 H             1 RES     
      68 H           -8.8550    -1.6320    -0.7630 H             1 RES     
      69 H           -8.0660     0.8280    -2.5470 H             1 RES     
      70 H           -8.3770     1.7270    -0.3830 H             1 RES     
      71 H           -7.3290     0.4690     0.3460 H             1 RES     
      72 H           -6.5850     2.9190    -1.3540 H             1 RES     
      73 H           -5.3800     1.6860    -0.8290 H             1 RES     
      74 H           -7.2950     3.1880     1.1100 H             1 RES     
      75 H           -6.0640     1.9780     1.5600 H             1 RES     
      76 H           -5.3320     4.1160     2.1840 H             1 RES     
      77 H           -5.5470     4.8120     0.5390 H             1 RES     
      78 H           -3.7620     3.4300    -0.3660 H             1 RES     
      79 H           -3.5930     2.4920     1.1750 H             1 RES     
      80 H           -3.1350     5.5370     0.9990 H             1 RES     
      81 H           -2.8520     4.4470     2.4120 H             1 RES     
      82 H           -1.4280     4.3700    -0.3310 H             1 RES     
      83 H           -1.1240     3.1920     1.0070 H             1 RES     
      84 H           -0.6960     6.2470     1.1890 H             1 RES     
      85 H            0.5890     5.0010     0.9520 H             1 RES     
      86 H           -0.3560     5.0320     2.4890 H             1 RES     
      87 H           -5.6960    -0.1880    -2.2150 H             1 RES     
      88 H           -6.8220    -1.1370    -3.2330 H             1 RES     
      89 H           -7.2870    -2.7660    -1.5130 H             1 RES     
      90 H           -6.4250    -1.7820    -0.2990 H             1 RES     
      91 H           -4.2710    -2.2830    -1.4250 H             1 RES     
      92 H           -5.1620    -3.3350    -2.6000 H             1 RES     
      93 H           -6.0650    -4.6850    -0.6330 H             1 RES     
      94 H           -5.1650    -3.6070     0.4940 H             1 RES     
      95 H           -3.0060    -4.3160    -0.5760 H             1 RES     
      96 H           -3.9160    -5.5170    -1.5670 H             1 RES     
      97 H           -2.8360    -6.5050     0.4450 H             1 RES     
      98 H           -3.7150    -5.3740     1.5330 H             1 RES     
      99 H           -5.8920    -6.3980     0.8670 H             1 RES     
     100 H           -5.0480    -7.5380    -0.2440 H             1 RES     
     101 H           -4.7050    -7.3690     2.8340 H             1 RES     
     102 H           -5.7270    -8.5490     1.9380 H             1 RES     
     103 H           -2.6510    -8.3450     1.7190 H             1 RES     
     104 H           -3.7100    -9.4720     0.7840 H             1 RES     
     105 H           -4.4850   -10.5090     2.9270 H             1 RES     
     106 H           -3.4260    -9.3730     3.8580 H             1 RES     
     107 H           -2.6930   -10.5920     2.7490 H             1 RES     
     108 H          -11.5550    -1.3380     0.4930 H             1 RES     
     109 H          -12.4030    -0.0660    -0.4130 H             1 RES     
     110 H          -11.1680    -2.6650    -1.4970 H             1 RES     
     111 H          -11.2740    -0.7910    -3.2850 H             1 RES     
     112 H          -13.0270    -0.6910    -3.0230 H             1 RES     
     113 H          -13.2390    -3.1200    -3.7590 H             1 RES     
     114 H          -11.4390    -3.2000    -3.8940 H             1 RES     
     115 H          -13.3420    -1.3790    -5.4960 H             1 RES     
     116 H          -11.5580    -1.4790    -5.7350 H             1 RES     
     117 H          -12.8650    -2.7710    -7.4350 H             1 RES     
     118 H          -13.6070    -3.7770    -6.1410 H             1 RES     
     119 H          -11.3190    -4.6730    -5.5520 H             1 RES     
     120 H          -10.6000    -3.5930    -6.8120 H             1 RES     
     121 H          -12.6700    -5.8360    -7.2880 H             1 RES     
     122 H          -11.9310    -4.8150    -8.5750 H             1 RES     
     123 H          -10.9040    -7.0820    -8.4120 H             1 RES     
     124 H          -10.4370    -6.7810    -6.7000 H             1 RES     
     125 H           -8.9070    -4.9260    -7.4620 H             1 RES     
     126 H           -9.4390    -5.2050    -9.1720 H             1 RES     
     127 H           -8.5250    -6.4770    -8.2750 H             1 RES     
     128 H          -13.4980    -3.5070    -1.6910 H             1 RES     
     129 H          -14.1630    -1.9010    -1.2280 H             1 RES     
     130 H          -13.4190    -2.1880     1.0610 H             1 RES     
     131 H          -14.4000    -3.5710     0.5410 H             1 RES     
     132 H          -11.2960    -3.6030     0.6420 H             1 RES     
     133 H          -12.3700    -4.9450     0.1230 H             1 RES     
     134 H          -11.6140    -5.2930     2.4010 H             1 RES     
     135 H          -13.3940    -5.0080     2.3910 H             1 RES     
     136 H          -11.2030    -2.9140     3.0440 H             1 RES     
     137 H          -12.9710    -2.6180     3.1940 H             1 RES     
     138 H          -11.3150    -4.6700     4.7910 H             1 RES     
     139 H          -11.8390    -3.0450     5.3640 H             1 RES     
     140 H          -14.2400    -3.7070     5.1880 H             1 RES     
     141 H          -13.7680    -5.3120     4.5460 H             1 RES     
     142 H          -12.5930    -5.9250     6.5870 H             1 RES     
     143 H          -14.3250    -5.5610     6.8820 H             1 RES     
     144 H          -11.9420    -3.6990     7.5500 H             1 RES     
     145 H          -12.8680    -4.7230     8.6900 H             1 RES     
     146 H          -14.9580    -3.4520     8.2010 H             1 RES     
     147 H          -13.6380    -2.3940     8.8270 H             1 RES     
     148 H          -14.0370    -2.3700     7.0740 H             1 RES     
@<TRIPOS>BOND
       1        2        1 1
       2        8        1 1
       3       26        1 1
       4        3        2 1
       5        6        2 1
       6        4        3 1
       7        7        3 1
       8        5        4 1
       9        6        5 1
      10       12        5 1
      11       13        6 1
      12        8        7 1
      13       11        7 1
      14        9        8 1
      15       10        9 1
      16       14        9 1
      17       11       10 1
      18       23       10 1
      19       16       15 1
      20       19       15 1
      21       23       15 1
      22       17       16 1
      23       18       17 1
      24       19       18 1
      25       20       19 1
      26       21       20 1
      27       24       20 1
      28       22       21 1
      29       23       22 1
      30       25       22 1
      31       27       26 1
      32       47       26 1
      33       28       27 1
      34       67       27 1
      35       68       27 1
      36       29       28 1
      37       37       28 1
      38       69       28 1
      39       30       29 1
      40       70       29 1
      41       71       29 1
      42       31       30 1
      43       72       30 1
      44       73       30 1
      45       32       31 1
      46       74       31 1
      47       75       31 1
      48       33       32 1
      49       76       32 1
      50       77       32 1
      51       34       33 1
      52       78       33 1
      53       79       33 1
      54       35       34 1
      55       80       34 1
      56       81       34 1
      57       36       35 1
      58       82       35 1
      59       83       35 1
      60       84       36 1
      61       85       36 1
      62       86       36 1
      63       38       37 1
      64       87       37 1
      65       88       37 1
      66       39       38 1
      67       89       38 1
      68       90       38 1
      69       40       39 1
      70       91       39 1
      71       92       39 1
      72       41       40 1
      73       93       40 1
      74       94       40 1
      75       42       41 1
      76       95       41 1
      77       96       41 1
      78       43       42 1
      79       97       42 1
      80       98       42 1
      81       44       43 1
      82       99       43 1
      83      100       43 1
      84       45       44 1
      85      101       44 1
      86      102       44 1
      87       46       45 1
      88      103       45 1
      89      104       45 1
      90      105       46 1
      91      106       46 1
      92      107       46 1
      93       48       47 1
      94      108       47 1
      95      109       47 1
      96       49       48 1
      97       57       48 1
      98      110       48 1
      99       50       49 1
     100      111       49 1
     101      112       49 1
     102       51       50 1
     103      113       50 1
     104      114       50 1
     105       52       51 1
     106      115       51 1
     107      116       51 1
     108       53       52 1
     109      117       52 1
     110      118       52 1
     111       54       53 1
     112      119       53 1
     113      120       53 1
     114       55       54 1
     115      121       54 1
     116      122       54 1
     117       56       55 1
     118      123       55 1
     119      124       55 1
     120      125       56 1
     121      126       56 1
     122      127       56 1
     123       58       57 1
     124      128       57 1
     125      129       57 1
     126       59       58 1
     127      130       58 1
     128      131       58 1
     129       60       59 1
     130      132       59 1
     131      133       59 1
     132       61       60 1
     133      134       60 1
     134      135       60 1
     135       62       61 1
     136      136       61 1
     137      137       61 1
     138       63       62 1
     139      138       62 1
     140      139       62 1
     141       64       63 1
     142      140       63 1
     143      141       63 1
     144       65       64 1
     145      142       64 1
     146      143       64 1
     147       66       65 1
     148      144       65 1
     149      145       65 1
     150      146       66 1
     151      147       66 1
     152      148       66 1
@<TRIPOS>SUBSTRUCTURE
       1 RES             1 RESIDUE    0 **** ROOT      0
