@<TRIPOS>MOLECULE
RES
222 231 1 0 1
SMALL
NO_CHARGES
@<TRIPOS>CRYSIN
   31.1300    18.1460    24.9060    90.0000    90.0000    90.0000  1  1
@<TRIPOS>ATOM
       1 C          -10.0500    -0.5740    -1.1770 C             1 RES     
       2 C          -10.8430     0.7660    -1.4210 C             1 RES     
       3 C          -10.2260     1.8760    -0.5380 C             1 RES     
       4 S          -11.5320     2.6390     0.4730 S             1 RES     
       5 C          -12.7570     1.9370    -0.6260 C             1 RES     
       6 C          -12.3090     0.9600    -1.4780 C             1 RES     
       7 C           -9.2360     1.0860     0.2680 C             1 RES     
       8 C           -8.7650     0.1700    -0.7870 C             1 RES     
       9 C           -7.5280    -0.4620    -0.3070 C             1 RES     
      10 C           -6.7280     0.4710     0.5570 C             1 RES     
      11 S           -7.8320     1.8420     1.1210 S             1 RES     
      12 H          -13.7780     2.2860    -0.6570 H             1 RES     
      13 H          -12.9560     0.5400    -2.2300 H             1 RES     
      14 H           -7.0740    -1.3070    -0.8070 H             1 RES     
      15 C            1.7330     0.4830    -2.2410 C             1 RES     
      16 C            0.5280     1.4460    -2.5130 C             1 RES     
      17 C            0.6850     2.7630    -1.7780 C             1 RES     
      18 S           -0.8970     2.9820    -0.8820 S             1 RES     
      19 C           -1.8170     2.2030    -2.2860 C             1 RES     
      20 C           -0.8770     1.2880    -2.9690 C             1 RES     
      21 C            1.9090     2.4950    -0.9170 C             1 RES     
      22 C            2.6760     1.6010    -1.8150 C             1 RES     
      23 C            3.9760     1.3420    -1.1740 C             1 RES     
      24 C            4.4660     2.5700    -0.4570 C             1 RES     
      25 S            3.0980     3.8330    -0.6250 S             1 RES     
      26 H           -1.1190     1.0040    -3.9810 H             1 RES     
      27 H            4.6480     0.7180    -1.7440 H             1 RES     
      28 C            8.3130     2.3850    -1.0030 C             1 RES     
      29 N            9.2500     1.4480    -0.4310 N             1 RES     
      30 S            8.3710    -0.0930    -0.3080 S             1 RES     
      31 N            6.7850     0.6520    -0.5940 N             1 RES     
      32 C            6.9730     2.0760    -0.3990 C             1 RES     
      33 C            5.8620     2.9660    -1.0160 C             1 RES     
      34 C            6.2530     4.4400    -0.7460 C             1 RES     
      35 F            5.3760     5.3060    -1.3720 F             1 RES     
      36 C            7.6540     4.7500    -1.2880 C             1 RES     
      37 C            8.7010     3.8190    -0.6890 C             1 RES     
      38 H            7.9220     5.8040    -1.0650 H             1 RES     
      39 H            9.6940     4.0430    -1.1350 H             1 RES     
      40 C           -5.5470     2.0400    -1.2360 C             1 RES     
      41 N           -6.3620     3.1820    -0.8950 N             1 RES     
      42 S           -5.9040     4.4590    -2.0330 S             1 RES     
      43 N           -4.3550     3.6960    -2.4370 N             1 RES     
      44 C           -4.1790     2.6170    -1.4900 C             1 RES     
      45 C           -3.2150     1.5670    -2.0250 C             1 RES     
      46 C           -3.2020     0.3070    -1.1360 C             1 RES     
      47 F           -2.6270    -0.7430    -1.8290 F             1 RES     
      48 C           -4.5790    -0.1560    -0.6530 C             1 RES     
      49 C           -5.4230     0.9980    -0.1020 C             1 RES     
      50 H           -4.4480    -0.9570     0.1080 H             1 RES     
      51 C          -15.4870     3.2270     2.0600 C             1 RES     
      52 C          -15.0050     2.6770     3.4040 C             1 RES     
      53 C          -14.8350     1.1460     3.4340 C             1 RES     
      54 C          -13.7890     0.6210     2.4410 C             1 RES     
      55 C          -13.6550    -0.9250     2.3470 C             1 RES     
      56 C          -12.7590    -1.2910     1.1320 C             1 RES     
      57 C          -11.2390    -1.0440     1.2700 C             1 RES     
      58 C          -10.4770    -1.5510     0.0080 C             1 RES     
      59 C          -13.1510    -1.6130     3.6480 C             1 RES     
      60 C          -14.2730    -1.9700     4.6460 C             1 RES     
      61 C          -13.7450    -2.4370     6.0140 C             1 RES     
      62 C          -12.8190    -3.6610     5.9600 C             1 RES     
      63 C          -12.4040    -4.0750     7.3790 C             1 RES     
      64 C          -11.4410    -5.2570     7.3590 C             1 RES     
      65 H          -15.6560     4.3200     2.1480 H             1 RES     
      66 H          -16.4360     2.7400     1.7540 H             1 RES     
      67 H          -14.7230     3.0790     1.2760 H             1 RES     
      68 H          -14.0460     3.1690     3.6750 H             1 RES     
      69 H          -15.7630     2.9460     4.1710 H             1 RES     
      70 H          -14.5140     0.9000     4.4630 H             1 RES     
      71 H          -15.8180     0.6700     3.2180 H             1 RES     
      72 H          -14.1120     0.9540     1.4380 H             1 RES     
      73 H          -12.8040     1.0770     2.6740 H             1 RES     
      74 H          -14.6520    -1.3470     2.0830 H             1 RES     
      75 H          -12.8800    -2.3820     0.9700 H             1 RES     
      76 H          -13.1570    -0.7930     0.2290 H             1 RES     
      77 H          -10.9150    -1.6930     2.1120 H             1 RES     
      78 H          -10.9920    -0.0150     1.5670 H             1 RES     
      79 H           -9.5470    -2.0630     0.3370 H             1 RES     
      80 H          -11.0900    -2.3870    -0.3560 H             1 RES     
      81 H          -12.6970    -2.5920     3.3840 H             1 RES     
      82 H          -12.3590    -0.9810     4.1070 H             1 RES     
      83 H          -14.9130    -2.7600     4.1940 H             1 RES     
      84 H          -14.9310    -1.1140     4.8540 H             1 RES     
      85 H          -14.6260    -2.6810     6.6480 H             1 RES     
      86 H          -13.1990    -1.5940     6.4920 H             1 RES     
      87 H          -11.9050    -3.4120     5.3800 H             1 RES     
      88 H          -13.3440    -4.5080     5.4660 H             1 RES     
      89 H          -11.9030    -3.2220     7.8870 H             1 RES     
      90 H          -13.3080    -4.3560     7.9640 H             1 RES     
      91 H          -11.9140    -6.1360     6.8720 H             1 RES     
      92 H          -10.5130    -4.9870     6.8100 H             1 RES     
      93 H          -11.1680    -5.5300     8.4010 H             1 RES     
      94 C          -15.3560    -4.5770     0.6420 C             1 RES     
      95 C          -14.7280    -5.5720    -0.3370 C             1 RES     
      96 C          -14.5280    -5.0090    -1.7570 C             1 RES     
      97 C          -13.4660    -3.9020    -1.8260 C             1 RES     
      98 C          -13.2700    -3.1940    -3.2090 C             1 RES     
      99 C          -12.2200    -2.0560    -3.0450 C             1 RES     
     100 C          -10.7570    -2.5050    -2.9040 C             1 RES     
     101 C           -9.7700    -1.3710    -2.5040 C             1 RES     
     102 C          -12.8860    -4.1360    -4.3790 C             1 RES     
     103 C          -14.0890    -4.8240    -5.0600 C             1 RES     
     104 C          -13.6660    -5.8970    -6.0780 C             1 RES     
     105 C          -12.7520    -5.3740    -7.1940 C             1 RES     
     106 C          -12.4190    -6.4950    -8.1860 C             1 RES     
     107 C          -11.4610    -6.0050    -9.2660 C             1 RES     
     108 H          -15.5090    -5.0730     1.6240 H             1 RES     
     109 H          -16.3410    -4.2310     0.2620 H             1 RES     
     110 H          -14.7060    -3.7010     0.8110 H             1 RES     
     111 H          -13.7570    -5.9340     0.0670 H             1 RES     
     112 H          -15.4170    -6.4420    -0.4080 H             1 RES     
     113 H          -14.1750    -5.8600    -2.3730 H             1 RES     
     114 H          -15.5020    -4.6350    -2.1420 H             1 RES     
     115 H          -13.7650    -3.1080    -1.1150 H             1 RES     
     116 H          -12.5090    -4.3400    -1.4760 H             1 RES     
     117 H          -14.2210    -2.6760    -3.4670 H             1 RES     
     118 H          -12.2760    -1.3570    -3.9090 H             1 RES     
     119 H          -12.5110    -1.5190    -2.1330 H             1 RES     
     120 H          -10.4160    -2.9440    -3.8660 H             1 RES     
     121 H          -10.6700    -3.3220    -2.1680 H             1 RES     
     122 H           -8.7960    -1.8970    -2.4010 H             1 RES     
     123 H           -9.6550    -0.6480    -3.3420 H             1 RES     
     124 H          -12.4210    -3.5200    -5.1780 H             1 RES     
     125 H          -12.1320    -4.8690    -4.0190 H             1 RES     
     126 H          -14.7080    -4.0470    -5.5600 H             1 RES     
     127 H          -14.7450    -5.3330    -4.3400 H             1 RES     
     128 H          -14.5910    -6.3170    -6.5310 H             1 RES     
     129 H          -13.1430    -6.7160    -5.5350 H             1 RES     
     130 H          -11.8010    -5.0060    -6.7530 H             1 RES     
     131 H          -13.2540    -4.5390    -7.7300 H             1 RES     
     132 H          -11.9410    -7.3420    -7.6470 H             1 RES     
     133 H          -13.3540    -6.8590    -8.6640 H             1 RES     
     134 H          -11.9140    -5.1640    -9.8330 H             1 RES     
     135 H          -10.5080    -5.6660    -8.8070 H             1 RES     
     136 H          -11.2400    -6.8340    -9.9700 H             1 RES     
     137 C           -3.7350     3.3420     1.9950 C             1 RES     
     138 C           -3.0290     2.7070     3.1930 C             1 RES     
     139 C           -2.6510     1.2270     2.9930 C             1 RES     
     140 C           -1.6130     1.0030     1.8820 C             1 RES     
     141 C           -1.2910    -0.4820     1.5630 C             1 RES     
     142 C           -0.4350    -0.5920     0.2700 C             1 RES     
     143 C            1.0660    -0.3030     0.3080 C             1 RES     
     144 C            1.6760    -0.6070    -1.0930 C             1 RES     
     145 C           -0.6670    -1.2640     2.7480 C             1 RES     
     146 C           -1.7260    -1.9330     3.6540 C             1 RES     
     147 C           -1.1570    -2.4440     4.9860 C             1 RES     
     148 C            0.0150    -3.4250     4.8440 C             1 RES     
     149 C            0.4730    -3.9030     6.2280 C             1 RES     
     150 C            1.6870    -4.8200     6.1260 C             1 RES     
     151 H           -4.0130     4.3880     2.2420 H             1 RES     
     152 H           -4.6630     2.7860     1.7570 H             1 RES     
     153 H           -3.0790     3.3740     1.1040 H             1 RES     
     154 H           -2.1190     3.2920     3.4410 H             1 RES     
     155 H           -3.7260     2.7630     4.0580 H             1 RES     
     156 H           -2.2260     0.8780     3.9530 H             1 RES     
     157 H           -3.5770     0.6500     2.7600 H             1 RES     
     158 H           -2.0490     1.4240     0.9660 H             1 RES     
     159 H           -0.6790     1.5560     2.1220 H             1 RES     
     160 H           -2.2480    -0.9760     1.2800 H             1 RES     
     161 H           -0.5430    -1.6460    -0.0670 H             1 RES     
     162 H           -0.8490     0.0560    -0.5060 H             1 RES     
     163 H            1.4990    -1.0400     1.0160 H             1 RES     
     164 H            1.3200     0.6970     0.7000 H             1 RES     
     165 H            2.7270    -0.9280    -0.9280 H             1 RES     
     166 H            1.1710    -1.5220    -1.4490 H             1 RES     
     167 H           -0.0590    -2.1100     2.3620 H             1 RES     
     168 H            0.0110    -0.5830     3.3080 H             1 RES     
     169 H           -2.1930    -2.7680     3.0870 H             1 RES     
     170 H           -2.5410    -1.2410     3.9190 H             1 RES     
     171 H           -1.9850    -2.9420     5.5370 H             1 RES     
     172 H           -0.8190    -1.5690     5.5840 H             1 RES     
     173 H            0.8660    -2.9120     4.3460 H             1 RES     
     174 H           -0.2940    -4.2980     4.2300 H             1 RES     
     175 H            0.7470    -3.0270     6.8560 H             1 RES     
     176 H           -0.3570    -4.4500     6.7260 H             1 RES     
     177 H            1.4460    -5.7160     5.5160 H             1 RES     
     178 H            2.5380    -4.2770     5.6640 H             1 RES     
     179 H            1.9880    -5.1490     7.1430 H             1 RES     
     180 C           -2.2620    -4.6030    -0.6500 C             1 RES     
     181 C           -1.5870    -5.4490    -1.7350 C             1 RES     
     182 C           -1.5530    -4.7760    -3.1210 C             1 RES     
     183 C           -0.6720    -3.5260    -3.1490 C             1 RES     
     184 C           -0.6780    -2.6930    -4.4700 C             1 RES     
     185 C            0.1090    -1.3840    -4.2270 C             1 RES     
     186 C            1.6270    -1.4850    -4.0440 C             1 RES     
     187 C            2.2770    -0.1500    -3.5760 C             1 RES     
     188 C           -0.1420    -3.4200    -5.7210 C             1 RES     
     189 C           -1.2040    -4.2720    -6.4510 C             1 RES     
     190 C           -0.5930    -5.1310    -7.5710 C             1 RES     
     191 C            0.1610    -4.3220    -8.6360 C             1 RES     
     192 C            0.7250    -5.2530    -9.7150 C             1 RES     
     193 C            1.5410    -4.4750   -10.7410 C             1 RES     
     194 H           -2.2960    -5.1800     0.2980 H             1 RES     
     195 H           -3.3010    -4.3480    -0.9490 H             1 RES     
     196 H           -1.7020    -3.6710    -0.4450 H             1 RES     
     197 H           -0.5530    -5.7050    -1.4150 H             1 RES     
     198 H           -2.1650    -6.3930    -1.8290 H             1 RES     
     199 H           -1.1240    -5.5230    -3.8190 H             1 RES     
     200 H           -2.5910    -4.5220    -3.4280 H             1 RES     
     201 H           -1.0470    -2.8490    -2.3570 H             1 RES     
     202 H            0.3620    -3.8270    -2.8830 H             1 RES     
     203 H           -1.7210    -2.3590    -4.6690 H             1 RES     
     204 H           -0.0840    -0.6750    -5.0620 H             1 RES     
     205 H           -0.3140    -0.9970    -3.2950 H             1 RES     
     206 H            2.0930    -1.7950    -5.0030 H             1 RES     
     207 H            1.8790    -2.2710    -3.3120 H             1 RES     
     208 H            3.3550    -0.3930    -3.4440 H             1 RES     
     209 H            2.2150     0.6070    -4.3900 H             1 RES     
     210 H            0.1620    -2.6510    -6.4620 H             1 RES     
     211 H            0.7570    -4.0080    -5.4420 H             1 RES     
     212 H           -1.9830    -3.5940    -6.8660 H             1 RES     
     213 H           -1.7150    -4.9690    -5.7720 H             1 RES     
     214 H           -1.4220    -5.6920    -8.0590 H             1 RES     
     215 H            0.1020    -5.8630    -7.1120 H             1 RES     
     216 H            1.0150    -3.7900    -8.1670 H             1 RES     
     217 H           -0.5210    -3.5770    -9.1020 H             1 RES     
     218 H            1.3880    -6.0110    -9.2410 H             1 RES     
     219 H           -0.1080    -5.7800   -10.2290 H             1 RES     
     220 H            0.9060    -3.7170   -11.2470 H             1 RES     
     221 H            2.3950    -3.9650   -10.2460 H             1 RES     
     222 H            1.9420    -5.1750   -11.5050 H             1 RES     
@<TRIPOS>BOND
       1        2        1 1
       2        8        1 1
       3       58        1 1
       4      101        1 1
       5        3        2 1
       6        6        2 1
       7        4        3 1
       8        7        3 1
       9        5        4 1
      10        6        5 1
      11       12        5 1
      12       13        6 1
      13        8        7 1
      14       11        7 1
      15        9        8 1
      16       10        9 1
      17       14        9 1
      18       11       10 1
      19       49       10 1
      20       16       15 1
      21       22       15 1
      22      144       15 1
      23      187       15 1
      24       17       16 1
      25       20       16 1
      26       18       17 1
      27       21       17 1
      28       19       18 1
      29       20       19 1
      30       45       19 1
      31       26       20 1
      32       22       21 1
      33       25       21 1
      34       23       22 1
      35       24       23 1
      36       27       23 1
      37       25       24 1
      38       33       24 1
      39       29       28 1
      40       32       28 1
      41       37       28 1
      42       30       29 1
      43       31       30 1
      44       32       31 1
      45       33       32 1
      46       34       33 1
      47       35       34 1
      48       36       34 1
      49       37       36 1
      50       38       36 1
      51       39       37 1
      52       41       40 1
      53       44       40 1
      54       49       40 1
      55       42       41 1
      56       43       42 1
      57       44       43 1
      58       45       44 1
      59       46       45 1
      60       47       46 1
      61       48       46 1
      62       49       48 1
      63       50       48 1
      64       52       51 1
      65       65       51 1
      66       66       51 1
      67       67       51 1
      68       53       52 1
      69       68       52 1
      70       69       52 1
      71       54       53 1
      72       70       53 1
      73       71       53 1
      74       55       54 1
      75       72       54 1
      76       73       54 1
      77       56       55 1
      78       59       55 1
      79       74       55 1
      80       57       56 1
      81       75       56 1
      82       76       56 1
      83       58       57 1
      84       77       57 1
      85       78       57 1
      86       79       58 1
      87       80       58 1
      88       60       59 1
      89       81       59 1
      90       82       59 1
      91       61       60 1
      92       83       60 1
      93       84       60 1
      94       62       61 1
      95       85       61 1
      96       86       61 1
      97       63       62 1
      98       87       62 1
      99       88       62 1
     100       64       63 1
     101       89       63 1
     102       90       63 1
     103       91       64 1
     104       92       64 1
     105       93       64 1
     106       95       94 1
     107      108       94 1
     108      109       94 1
     109      110       94 1
     110       96       95 1
     111      111       95 1
     112      112       95 1
     113       97       96 1
     114      113       96 1
     115      114       96 1
     116       98       97 1
     117      115       97 1
     118      116       97 1
     119       99       98 1
     120      102       98 1
     121      117       98 1
     122      100       99 1
     123      118       99 1
     124      119       99 1
     125      101      100 1
     126      120      100 1
     127      121      100 1
     128      122      101 1
     129      123      101 1
     130      103      102 1
     131      124      102 1
     132      125      102 1
     133      104      103 1
     134      126      103 1
     135      127      103 1
     136      105      104 1
     137      128      104 1
     138      129      104 1
     139      106      105 1
     140      130      105 1
     141      131      105 1
     142      107      106 1
     143      132      106 1
     144      133      106 1
     145      134      107 1
     146      135      107 1
     147      136      107 1
     148      138      137 1
     149      151      137 1
     150      152      137 1
     151      153      137 1
     152      139      138 1
     153      154      138 1
     154      155      138 1
     155      140      139 1
     156      156      139 1
     157      157      139 1
     158      141      140 1
     159      158      140 1
     160      159      140 1
     161      142      141 1
     162      145      141 1
     163      160      141 1
     164      143      142 1
     165      161      142 1
     166      162      142 1
     167      144      143 1
     168      163      143 1
     169      164      143 1
     170      165      144 1
     171      166      144 1
     172      146      145 1
     173      167      145 1
     174      168      145 1
     175      147      146 1
     176      169      146 1
     177      170      146 1
     178      148      147 1
     179      171      147 1
     180      172      147 1
     181      149      148 1
     182      173      148 1
     183      174      148 1
     184      150      149 1
     185      175      149 1
     186      176      149 1
     187      177      150 1
     188      178      150 1
     189      179      150 1
     190      181      180 1
     191      194      180 1
     192      195      180 1
     193      196      180 1
     194      182      181 1
     195      197      181 1
     196      198      181 1
     197      183      182 1
     198      199      182 1
     199      200      182 1
     200      184      183 1
     201      201      183 1
     202      202      183 1
     203      185      184 1
     204      188      184 1
     205      203      184 1
     206      186      185 1
     207      204      185 1
     208      205      185 1
     209      187      186 1
     210      206      186 1
     211      207      186 1
     212      208      187 1
     213      209      187 1
     214      189      188 1
     215      210      188 1
     216      211      188 1
     217      190      189 1
     218      212      189 1
     219      213      189 1
     220      191      190 1
     221      214      190 1
     222      215      190 1
     223      192      191 1
     224      216      191 1
     225      217      191 1
     226      193      192 1
     227      218      192 1
     228      219      192 1
     229      220      193 1
     230      221      193 1
     231      222      193 1
@<TRIPOS>SUBSTRUCTURE
       1 RES             1 RESIDUE    0 **** ROOT      0
