@<TRIPOS>MOLECULE
Compound
486 505 1 0 1
SMALL
NO_CHARGES
@<TRIPOS>CRYSIN
   54.3245    22.3984    21.6492    90.0000    90.0000    90.0000  1  1
@<TRIPOS>ATOM
       1 C0          -0.2788    -0.3561    -1.1710 C0            1 Compound
       2 C1          -1.3228     0.2092    -0.1941 C1            1 Compound
       3 C1          -0.7675     0.7490     0.9198 C1            1 Compound
       4 S2          -1.9156     1.3732     1.9596 S2            1 Compound
       5 C1          -3.1997     0.9330     0.9295 C1            1 Compound
       6 C1          -2.7080     0.3067    -0.2217 C1            1 Compound
       7 C1           0.6414     0.6122     0.8315 C1            1 Compound
       8 C1           0.9524    -0.0342    -0.3295 C1            1 Compound
       9 C1           2.3138    -0.2183    -0.4855 C1            1 Compound
      10 C1           3.0369     0.2919     0.6193 C1            1 Compound
      11 S2           1.9794     1.0189     1.7410 S2            1 Compound
      12 H3          -3.3275    -0.0615    -1.0283 H3            1 Compound
      13 H3           2.7338    -0.7009    -1.3544 H3            1 Compound
      14 N4           6.5878     1.0692     1.6754 N4            1 Compound
      15 C1           5.2218     1.1345     1.5787 C1            1 Compound
      16 C1           4.5036     0.2008     0.7973 C1            1 Compound
      17 C1           5.2203    -0.8436     0.2105 C1            1 Compound
      18 N4           4.6508    -1.8679    -0.4791 N4            1 Compound
      19 S2           5.9376    -2.8078    -0.8802 S2            1 Compound
      20 N4           7.2088    -1.9896    -0.2339 N4            1 Compound
      21 C1           6.6192    -0.9061     0.3381 C1            1 Compound
      22 C1           7.3117     0.1040     1.0492 C1            1 Compound
      23 H5           4.7055     1.9464     2.0713 H5            1 Compound
      24 C0          -0.3848     0.5870    -2.4315 C0            1 Compound
      25 C0           0.5235     0.7078    -3.7109 C0            1 Compound
      26 C0           0.3109     2.1280    -4.3587 C0            1 Compound
      27 C0          -0.9831     2.4386    -5.1704 C0            1 Compound
      28 C0          -2.3433     2.4756    -4.4410 C0            1 Compound
      29 C0          -2.4348     3.4433    -3.2456 C0            1 Compound
      30 C0          -2.2622     4.9144    -3.6446 C0            1 Compound
      31 C0          -2.4291     5.8294    -2.4334 C0            1 Compound
      32 C0           0.3232    -0.3507    -4.8390 C0            1 Compound
      33 C0           1.1273    -1.6378    -4.6843 C0            1 Compound
      34 C0           0.7565    -2.6625    -5.7767 C0            1 Compound
      35 C0           1.4974    -3.9995    -5.5914 C0            1 Compound
      36 C0           0.9380    -5.0813    -6.5355 C0            1 Compound
      37 C0           1.4624    -6.4999    -6.2313 C0            1 Compound
      38 C0           0.9365    -7.0484    -4.8889 C0            1 Compound
      39 C0           1.3862    -8.4846    -4.6424 C0            1 Compound
      40 H6          -1.4214     0.4940    -2.7776 H6            1 Compound
      41 H6          -0.2679     1.5884    -1.9634 H6            1 Compound
      42 H6           1.5870     0.7217    -3.3840 H6            1 Compound
      43 H6           1.1395     2.2579    -5.0911 H6            1 Compound
      44 H6           0.4692     2.9228    -3.5989 H6            1 Compound
      45 H6          -1.0700     1.7187    -6.0112 H6            1 Compound
      46 H6          -0.8342     3.4362    -5.6352 H6            1 Compound
      47 H6          -2.6262     1.4607    -4.1197 H6            1 Compound
      48 H6          -3.1226     2.7627    -5.1801 H6            1 Compound
      49 H6          -1.6896     3.1810    -2.4723 H6            1 Compound
      50 H6          -3.4434     3.3210    -2.7929 H6            1 Compound
      51 H6          -1.2527     5.0819    -4.0745 H6            1 Compound
      52 H6          -3.0283     5.1834    -4.4038 H6            1 Compound
      53 H6          -3.4382     5.7003    -1.9864 H6            1 Compound
      54 H6          -2.3135     6.8882    -2.7468 H6            1 Compound
      55 H6          -1.6594     5.5986    -1.6661 H6            1 Compound
      56 H6           0.6889     0.0624    -5.8060 H6            1 Compound
      57 H6          -0.7654    -0.5503    -4.9509 H6            1 Compound
      58 H6           2.2159    -1.4128    -4.7163 H6            1 Compound
      59 H6           0.8911    -2.0517    -3.7163 H6            1 Compound
      60 H6          -0.3369    -2.8526    -5.6938 H6            1 Compound
      61 H6           0.9660    -2.2564    -6.7903 H6            1 Compound
      62 H6           2.5902    -3.8723    -5.7489 H6            1 Compound
      63 H6           1.3588    -4.3242    -4.5552 H6            1 Compound
      64 H6          -0.1720    -5.1147    -6.4655 H6            1 Compound
      65 H6           1.2057    -4.8037    -7.5779 H6            1 Compound
      66 H6           2.5736    -6.5099    -6.2511 H6            1 Compound
      67 H6           1.0926    -7.1729    -7.0359 H6            1 Compound
      68 H6          -0.1758    -7.0250    -4.8907 H6            1 Compound
      69 H6           1.3061    -6.4387    -4.0446 H6            1 Compound
      70 H6           0.9724    -8.8379    -3.6729 H6            1 Compound
      71 H6           1.0161    -9.1527    -5.4483 H6            1 Compound
      72 H6           2.4941    -8.5386    -4.5952 H6            1 Compound
      73 C0          -0.6814    -1.8730    -1.3958 C0            1 Compound
      74 C0           0.3066    -3.0845    -1.3959 C0            1 Compound
      75 C0          -0.1950    -4.2084    -2.3668 C0            1 Compound
      76 C0          -1.4261    -5.0799    -2.0251 C0            1 Compound
      77 C0          -2.8111    -4.4059    -2.0658 C0            1 Compound
      78 C0          -3.1945    -3.7241    -3.3986 C0            1 Compound
      79 C0          -3.1984    -4.6670    -4.6077 C0            1 Compound
      80 C0          -3.6447    -3.9200    -5.8640 C0            1 Compound
      81 C0           0.5806    -3.7513    -0.0169 C0            1 Compound
      82 C0           1.3477    -2.8874     0.9648 C0            1 Compound
      83 C0           1.7151    -3.6381     2.2438 C0            1 Compound
      84 C0           2.5314    -2.7131     3.1507 C0            1 Compound
      85 C0           2.9087    -3.4030     4.4653 C0            1 Compound
      86 C0           3.7819    -2.5164     5.3686 C0            1 Compound
      87 C0           3.0770    -1.2236     5.8103 C0            1 Compound
      88 C0           3.9546    -0.4172     6.7606 C0            1 Compound
      89 H6          -1.4841    -2.1660    -0.6932 H6            1 Compound
      90 H6          -1.1678    -1.8321    -2.3817 H6            1 Compound
      91 H6           1.2796    -2.7452    -1.8023 H6            1 Compound
      92 H6           0.6498    -4.9241    -2.4467 H6            1 Compound
      93 H6          -0.3721    -3.7940    -3.3722 H6            1 Compound
      94 H6          -1.2819    -5.5670    -1.0412 H6            1 Compound
      95 H6          -1.4479    -5.9042    -2.7720 H6            1 Compound
      96 H6          -2.8939    -3.6665    -1.2511 H6            1 Compound
      97 H6          -3.5688    -5.1902    -1.8500 H6            1 Compound
      98 H6          -2.5168    -2.8832    -3.6229 H6            1 Compound
      99 H6          -4.2151    -3.3014    -3.2715 H6            1 Compound
     100 H6          -2.1776    -5.0655    -4.7860 H6            1 Compound
     101 H6          -3.8925    -5.5142    -4.4224 H6            1 Compound
     102 H6          -4.6735    -3.5217    -5.7308 H6            1 Compound
     103 H6          -3.6396    -4.6092    -6.7337 H6            1 Compound
     104 H6          -2.9555    -3.0743    -6.0773 H6            1 Compound
     105 H6           1.2114    -4.6515    -0.1962 H6            1 Compound
     106 H6          -0.3719    -4.0811     0.4496 H6            1 Compound
     107 H6           2.2923    -2.5787     0.4795 H6            1 Compound
     108 H6           0.7242    -2.0197     1.2415 H6            1 Compound
     109 H6           0.7870    -3.9618     2.7636 H6            1 Compound
     110 H6           2.3223    -4.5364     1.9930 H6            1 Compound
     111 H6           3.4603    -2.4052     2.6197 H6            1 Compound
     112 H6           1.9199    -1.8115     3.3601 H6            1 Compound
     113 H6           1.9856    -3.6966     5.0113 H6            1 Compound
     114 H6           3.4847    -4.3257     4.2325 H6            1 Compound
     115 H6           4.7262    -2.2642     4.8372 H6            1 Compound
     116 H6           4.0398    -3.1097     6.2730 H6            1 Compound
     117 H6           2.1247    -1.4753     6.3254 H6            1 Compound
     118 H6           2.8540    -0.5825     4.9322 H6            1 Compound
     119 H6           3.4215     0.5100     7.0595 H6            1 Compound
     120 H6           4.1797    -1.0094     7.6728 H6            1 Compound
     121 H6           4.9059    -0.1359     6.2605 H6            1 Compound
     122 C0          11.9351    -0.8496    -0.7519 C0            1 Compound
     123 C1          10.8470    -0.3363     0.1568 C1            1 Compound
     124 C1          11.2493     0.2503     1.3050 C1            1 Compound
     125 S2           9.9004     0.7702     2.1955 S2            1 Compound
     126 C1           8.7895     0.1241     1.0452 C1            1 Compound
     127 C1           9.4980    -0.3971    -0.0226 C1            1 Compound
     128 C1          12.6883     0.1793     1.3006 C1            1 Compound
     129 C1          13.0849    -0.4715     0.1581 C1            1 Compound
     130 C1          14.4464    -0.6301     0.0528 C1            1 Compound
     131 C1          15.1251    -0.1097     1.1731 C1            1 Compound
     132 S2          14.0056     0.6115     2.2517 S2            1 Compound
     133 H3           9.0834    -0.8257    -0.9202 H3            1 Compound
     134 H3          14.8953    -1.1096    -0.8034 H3            1 Compound
     135 N4          18.6893     0.6831     2.2048 N4            1 Compound
     136 C1          17.3215     0.7467     2.1224 C1            1 Compound
     137 C1          16.5944    -0.1973     1.3613 C1            1 Compound
     138 C1          17.3126    -1.2523     0.7844 C1            1 Compound
     139 N4          16.7417    -2.2894     0.1145 N4            1 Compound
     140 S2          18.0246    -3.2320    -0.2899 S2            1 Compound
     141 N4          19.2989    -2.4012     0.3316 N4            1 Compound
     142 C1          18.7141    -1.3103     0.8990 C1            1 Compound
     143 C1          19.4101    -0.2925     1.5802 C1            1 Compound
     144 H5          16.8073     1.5669     2.6052 H5            1 Compound
     145 C0          11.8258     0.1026    -2.0110 C0            1 Compound
     146 C0          12.7142     0.2557    -3.2921 C0            1 Compound
     147 C0          12.4582     1.6786    -3.9207 C0            1 Compound
     148 C0          11.1401     1.9767    -4.7016 C0            1 Compound
     149 C0           9.7897     1.9933    -3.9513 C0            1 Compound
     150 C0           9.6945     2.9608    -2.7550 C0            1 Compound
     151 C0           9.8348     4.4350    -3.1578 C0            1 Compound
     152 C0           9.6504     5.3509    -1.9500 C0            1 Compound
     153 C0          12.5002    -0.7970    -4.4203 C0            1 Compound
     154 C0          13.2717    -2.1004    -4.2536 C0            1 Compound
     155 C0          12.8759    -3.1217    -5.3386 C0            1 Compound
     156 C0          13.6076    -4.4642    -5.1613 C0            1 Compound
     157 C0          13.0196    -5.5425    -6.0911 C0            1 Compound
     158 C0          13.5425    -6.9636    -5.7984 C0            1 Compound
     159 C0          13.0446    -7.5083    -4.4443 C0            1 Compound
     160 C0          13.4922    -8.9461    -4.2058 C0            1 Compound
     161 H6          10.8001    -0.0129    -2.3769 H6            1 Compound
     162 H6          11.9121     1.1057    -1.5379 H6            1 Compound
     163 H6          13.7817     0.2809    -2.9801 H6            1 Compound
     164 H6          13.2683     1.8302    -4.6687 H6            1 Compound
     165 H6          12.6171     2.4690    -3.1559 H6            1 Compound
     166 H6          11.0485     1.2611    -5.5454 H6            1 Compound
     167 H6          11.2669     2.9792    -5.1625 H6            1 Compound
     168 H6           9.5206     0.9768    -3.6249 H6            1 Compound
     169 H6           8.9963     2.2703    -4.6802 H6            1 Compound
     170 H6          10.4520     2.7101    -1.9889 H6            1 Compound
     171 H6           8.6917     2.8219    -2.2938 H6            1 Compound
     172 H6          10.8399     4.6215    -3.5918 H6            1 Compound
     173 H6           9.0614     4.6871    -3.9157 H6            1 Compound
     174 H6           8.6434     5.2045    -1.5031 H6            1 Compound
     175 H6           9.7451     6.4108    -2.2667 H6            1 Compound
     176 H6          10.4235     5.1380    -1.1810 H6            1 Compound
     177 H6          12.8741    -0.3881    -5.3857 H6            1 Compound
     178 H6          11.4081    -0.9787    -4.5333 H6            1 Compound
     179 H6          14.3644    -1.8986    -4.2859 H6            1 Compound
     180 H6          13.0230    -2.5057    -3.2827 H6            1 Compound
     181 H6          11.7810    -3.2983    -5.2413 H6            1 Compound
     182 H6          13.0775    -2.7204    -6.3555 H6            1 Compound
     183 H6          14.6977    -4.3458    -5.3407 H6            1 Compound
     184 H6          13.4909    -4.7854    -4.1217 H6            1 Compound
     185 H6          11.9112    -5.5685    -5.9955 H6            1 Compound
     186 H6          13.2652    -5.2666    -7.1392 H6            1 Compound
     187 H6          14.6529    -6.9792    -5.8429 H6            1 Compound
     188 H6          13.1507    -7.6346    -6.5939 H6            1 Compound
     189 H6          11.9326    -7.4781    -4.4197 H6            1 Compound
     190 H6          13.4392    -6.9007    -3.6108 H6            1 Compound
     191 H6          13.0984    -9.2956    -3.2266 H6            1 Compound
     192 H6          13.1008    -9.6133    -5.0022 H6            1 Compound
     193 H6          14.6006    -9.0051    -4.1830 H6            1 Compound
     194 C0          11.5492    -2.3747    -0.9709 C0            1 Compound
     195 C0          12.5128    -3.5934    -0.9743 C0            1 Compound
     196 C0          11.9618    -4.7119    -1.9260 C0            1 Compound
     197 C0          10.7027    -5.5406    -1.5679 C0            1 Compound
     198 C0           9.3320    -4.8313    -1.6010 C0            1 Compound
     199 C0           8.9476    -4.1574    -2.9370 C0            1 Compound
     200 C0           8.8948    -5.1154    -4.1320 C0            1 Compound
     201 C0           8.4317    -4.3754    -5.3865 C0            1 Compound
     202 C0          12.7709    -4.2499     0.4122 C0            1 Compound
     203 C0          13.4993    -3.3660     1.4050 C0            1 Compound
     204 C0          13.8361    -4.1031     2.7002 C0            1 Compound
     205 C0          14.6276    -3.1701     3.6197 C0            1 Compound
     206 C0          14.9801    -3.8553     4.9439 C0            1 Compound
     207 C0          15.8484    -2.9713     5.8532 C0            1 Compound
     208 C0          15.1491    -1.6713     6.2813 C0            1 Compound
     209 C0          16.0273    -0.8661     7.2324 C0            1 Compound
     210 H6          10.7743    -2.6891    -0.2449 H6            1 Compound
     211 H6          11.0308    -2.3374    -1.9406 H6            1 Compound
     212 H6          13.4876    -3.2739    -1.3944 H6            1 Compound
     213 H6          12.7828    -5.4533    -2.0064 H6            1 Compound
     214 H6          11.7830    -4.2979    -2.9315 H6            1 Compound
     215 H6          10.8396    -6.0262    -0.5805 H6            1 Compound
     216 H6          10.6496    -6.3689    -2.3067 H6            1 Compound
     217 H6           9.2720    -4.0818    -0.7940 H6            1 Compound
     218 H6           8.5578    -5.5944    -1.3676 H6            1 Compound
     219 H6           9.6414    -3.3356    -3.1838 H6            1 Compound
     220 H6           7.9409    -3.7087    -2.8032 H6            1 Compound
     221 H6           9.9027    -5.5380    -4.3271 H6            1 Compound
     222 H6           8.1867    -5.9447    -3.9193 H6            1 Compound
     223 H6           7.4131    -3.9575    -5.2338 H6            1 Compound
     224 H6           8.4031    -5.0748    -6.2476 H6            1 Compound
     225 H6           9.1298    -3.5443    -5.6264 H6            1 Compound
     226 H6          13.4087    -5.1474     0.2498 H6            1 Compound
     227 H6          11.8132    -4.5803     0.8683 H6            1 Compound
     228 H6          14.4485    -3.0475     0.9400 H6            1 Compound
     229 H6          12.8588    -2.5027     1.6583 H6            1 Compound
     230 H6          12.8962    -4.4262     3.1996 H6            1 Compound
     231 H6          14.4519    -5.0011     2.4718 H6            1 Compound
     232 H6          15.5665    -2.8636     3.1063 H6            1 Compound
     233 H6          14.0108    -2.2680     3.8129 H6            1 Compound
     234 H6          14.0474    -4.1410     5.4777 H6            1 Compound
     235 H6          15.5541    -4.7824     4.7240 H6            1 Compound
     236 H6          16.8002    -2.7287     5.3306 H6            1 Compound
     237 H6          16.0925    -3.5622     6.7630 H6            1 Compound
     238 H6          14.1917    -1.9134     6.7915 H6            1 Compound
     239 H6          14.9364    -1.0346     5.3975 H6            1 Compound
     240 H6          15.4999     0.0666     7.5235 H6            1 Compound
     241 H6          16.2435    -1.4551     8.1488 H6            1 Compound
     242 H6          16.9835    -0.5948     6.7360 H6            1 Compound
     243 C0          24.0213    -1.2801    -0.2733 C0            1 Compound
     244 C1          22.9397    -0.7574     0.6428 C1            1 Compound
     245 C1          23.3562    -0.1648     1.7825 C1            1 Compound
     246 S2          22.0204     0.3691     2.6852 S2            1 Compound
     247 C1          20.8917    -0.2744     1.5557 C1            1 Compound
     248 C1          21.5861    -0.8112     0.4795 C1            1 Compound
     249 C1          24.7944    -0.2420     1.7689 C1            1 Compound
     250 C1          25.1818    -0.9007     0.6268 C1            1 Compound
     251 C1          26.5438    -1.0635     0.5158 C1            1 Compound
     252 C1          27.2332    -0.5385     1.6310 C1            1 Compound
     253 S2          26.1194     0.1907     2.7095 S2            1 Compound
     254 H3          21.1590    -1.2442    -0.4102 H3            1 Compound
     255 H3          26.9868    -1.5489    -0.3399 H3            1 Compound
     256 N4          30.8110     0.2431     2.6472 N4            1 Compound
     257 C1          29.4414     0.3123     2.5715 C1            1 Compound
     258 C1          28.7041    -0.6287     1.8139 C1            1 Compound
     259 C1          29.4174    -1.6884     1.2378 C1            1 Compound
     260 N4          28.8386    -2.7243     0.5732 N4            1 Compound
     261 S2          30.1152    -3.6739     0.1660 S2            1 Compound
     262 N4          31.3963    -2.8483     0.7800 N4            1 Compound
     263 C1          30.8202    -1.7526     1.3468 C1            1 Compound
     264 C1          31.5261    -0.7368     2.0214 C1            1 Compound
     265 H5          28.9323     1.1350     3.0557 H5            1 Compound
     266 C0          23.9036    -0.3359    -1.5386 C0            1 Compound
     267 C0          24.7806    -0.1869    -2.8292 C0            1 Compound
     268 C0          24.5160     1.2324    -3.4613 C0            1 Compound
     269 C0          23.1908     1.5238    -4.2310 C0            1 Compound
     270 C0          21.8464     1.5461    -3.4693 C0            1 Compound
     271 C0          21.7650     2.5187    -2.2776 C0            1 Compound
     272 C0          21.9096     3.9903    -2.6891 C0            1 Compound
     273 C0          21.7409     4.9124    -1.4823 C0            1 Compound
     274 C0          24.5600    -1.2433    -3.9532 C0            1 Compound
     275 C0          25.3399    -2.5424    -3.7938 C0            1 Compound
     276 C0          24.9402    -3.5647    -4.8771 C0            1 Compound
     277 C0          25.6745    -4.9063    -4.7043 C0            1 Compound
     278 C0          25.0860    -5.9841    -5.6346 C0            1 Compound
     279 C0          25.6086    -7.4054    -5.3423 C0            1 Compound
     280 C0          25.1083    -7.9509    -3.9892 C0            1 Compound
     281 C0          25.5555    -9.3890    -3.7511 C0            1 Compound
     282 H6          22.8746    -0.4532    -1.8954 H6            1 Compound
     283 H6          23.9942     0.6693    -1.0712 H6            1 Compound
     284 H6          25.8507    -0.1583    -2.5264 H6            1 Compound
     285 H6          25.3196     1.3824    -4.2173 H6            1 Compound
     286 H6          24.6803     2.0269    -2.7019 H6            1 Compound
     287 H6          23.0916     0.8032    -5.0713 H6            1 Compound
     288 H6          23.3125     2.5236    -4.7012 H6            1 Compound
     289 H6          21.5808     0.5307    -3.1359 H6            1 Compound
     290 H6          21.0481     1.8197    -4.1932 H6            1 Compound
     291 H6          22.5281     2.2688    -1.5166 H6            1 Compound
     292 H6          20.7659     2.3860    -1.8070 H6            1 Compound
     293 H6          22.9101     4.1700    -3.1315 H6            1 Compound
     294 H6          21.1298     4.2432    -3.4400 H6            1 Compound
     295 H6          20.7377     4.7739    -1.0254 H6            1 Compound
     296 H6          21.8391     5.9707    -1.8052 H6            1 Compound
     297 H6          22.5207     4.6987    -0.7203 H6            1 Compound
     298 H6          24.9227    -0.8344    -4.9230 H6            1 Compound
     299 H6          23.4679    -1.4302    -4.0555 H6            1 Compound
     300 H6          26.4314    -2.3355    -3.8357 H6            1 Compound
     301 H6          25.1018    -2.9479    -2.8205 H6            1 Compound
     302 H6          23.8463    -3.7439    -4.7743 H6            1 Compound
     303 H6          25.1355    -3.1625    -5.8950 H6            1 Compound
     304 H6          26.7641    -4.7864    -4.8862 H6            1 Compound
     305 H6          25.5598    -5.2292    -3.6650 H6            1 Compound
     306 H6          23.9777    -6.0101    -5.5392 H6            1 Compound
     307 H6          25.3316    -5.7076    -6.6827 H6            1 Compound
     308 H6          26.7190    -7.4212    -5.3855 H6            1 Compound
     309 H6          25.2178    -8.0758    -6.1388 H6            1 Compound
     310 H6          23.9963    -7.9211    -3.9670 H6            1 Compound
     311 H6          25.5004    -7.3437    -3.1541 H6            1 Compound
     312 H6          25.1597    -9.7394    -2.7731 H6            1 Compound
     313 H6          25.1658   -10.0554    -4.5490 H6            1 Compound
     314 H6          26.6639    -9.4480    -3.7262 H6            1 Compound
     315 C0          23.6303    -2.8060    -0.4837 C0            1 Compound
     316 C0          24.5979    -4.0225    -0.5031 C0            1 Compound
     317 C0          24.0470    -5.1393    -1.4568 C0            1 Compound
     318 C0          22.7923    -5.9728    -1.0966 C0            1 Compound
     319 C0          21.4202    -5.2660    -1.1250 C0            1 Compound
     320 C0          21.0298    -4.5928    -2.4598 C0            1 Compound
     321 C0          20.9785    -5.5505    -3.6557 C0            1 Compound
     322 C0          20.5141    -4.8112    -4.9102 C0            1 Compound
     323 C0          24.8677    -4.6839     0.8791 C0            1 Compound
     324 C0          25.5960    -3.7993     1.8709 C0            1 Compound
     325 C0          25.9393    -4.5376     3.1636 C0            1 Compound
     326 C0          26.7271    -3.6019     4.0836 C0            1 Compound
     327 C0          27.0840    -4.2865     5.4067 C0            1 Compound
     328 C0          27.9466    -3.3973     6.3171 C0            1 Compound
     329 C0          27.2382    -2.1027     6.7466 C0            1 Compound
     330 C0          28.1114    -1.2913     7.6971 C0            1 Compound
     331 H6          22.8653    -3.1188     0.2544 H6            1 Compound
     332 H6          23.0967    -2.7713    -1.4453 H6            1 Compound
     333 H6          25.5687    -3.6965    -0.9269 H6            1 Compound
     334 H6          24.8703    -5.8778    -1.5438 H6            1 Compound
     335 H6          23.8624    -4.7231    -2.4601 H6            1 Compound
     336 H6          22.9335    -6.4598    -0.1105 H6            1 Compound
     337 H6          22.7393    -6.8004    -1.8365 H6            1 Compound
     338 H6          21.3629    -4.5159    -0.3182 H6            1 Compound
     339 H6          20.6484    -6.0309    -0.8893 H6            1 Compound
     340 H6          21.7211    -3.7691    -2.7079 H6            1 Compound
     341 H6          20.0215    -4.1469    -2.3222 H6            1 Compound
     342 H6          21.9871    -5.9708    -3.8519 H6            1 Compound
     343 H6          20.2725    -6.3817    -3.4435 H6            1 Compound
     344 H6          19.4949    -4.3951    -4.7577 H6            1 Compound
     345 H6          20.4871    -5.5105    -5.7715 H6            1 Compound
     346 H6          21.2110    -3.9790    -5.1500 H6            1 Compound
     347 H6          25.5093    -5.5779     0.7095 H6            1 Compound
     348 H6          23.9141    -5.0210     1.3386 H6            1 Compound
     349 H6          26.5426    -3.4763     1.4038 H6            1 Compound
     350 H6          24.9533    -2.9379     2.1271 H6            1 Compound
     351 H6          25.0019    -4.8664     3.6640 H6            1 Compound
     352 H6          26.5592    -5.4321     2.9321 H6            1 Compound
     353 H6          27.6639    -3.2900     3.5696 H6            1 Compound
     354 H6          26.1056    -2.7034     4.2780 H6            1 Compound
     355 H6          26.1533    -4.5787     5.9405 H6            1 Compound
     356 H6          27.6638    -5.2097     5.1859 H6            1 Compound
     357 H6          28.8964    -3.1476     5.7944 H6            1 Compound
     358 H6          28.1951    -3.9873     7.2262 H6            1 Compound
     359 H6          26.2830    -2.3520     7.2574 H6            1 Compound
     360 H6          27.0202    -1.4667     5.8636 H6            1 Compound
     361 H6          27.5771    -0.3625     7.9888 H6            1 Compound
     362 H6          28.3330    -1.8788     8.6129 H6            1 Compound
     363 H6          29.0648    -1.0126     7.1995 H6            1 Compound
     364 C0          36.1235    -1.7531     0.1204 C0            1 Compound
     365 C1          35.0535    -1.2257     1.0510 C1            1 Compound
     366 C1          35.4888    -0.6265     2.1766 C1            1 Compound
     367 S2          34.1634    -0.0807     3.0925 S2            1 Compound
     368 C1          33.0123    -0.7262     1.9852 C1            1 Compound
     369 C1          33.6955    -1.2734     0.9058 C1            1 Compound
     370 C1          36.9286    -0.7140     2.1342 C1            1 Compound
     371 C1          37.3078    -1.3875     0.9973 C1            1 Compound
     372 C1          38.6817    -1.5766     0.8861 C1            1 Compound
     373 C1          39.3702    -1.0343     1.9872 C1            1 Compound
     374 S2          38.2558    -0.2873     3.0565 S2            1 Compound
     375 H3          33.2566    -1.7091     0.0236 H3            1 Compound
     376 H3          39.1337    -2.0923     0.0496 H3            1 Compound
     377 N4          42.8100    -0.2395     3.3156 N4            1 Compound
     378 C1          41.4708    -0.1681     3.0594 C1            1 Compound
     379 C1          40.8335    -1.1236     2.2404 C1            1 Compound
     380 C1          41.6333    -2.1641     1.7251 C1            1 Compound
     381 N4          41.1691    -3.1894     0.9647 N4            1 Compound
     382 S2          42.5267    -4.0983     0.7147 S2            1 Compound
     383 N4          43.7070    -3.2714     1.5213 N4            1 Compound
     384 C1          43.0201    -2.2188     2.0303 C1            1 Compound
     385 C1          43.5953    -1.2350     2.8238 C1            1 Compound
     386 H5          40.9084     0.6534     3.4828 H5            1 Compound
     387 C0          35.9836    -0.7940    -1.1297 C0            1 Compound
     388 C0          36.8547    -0.6342    -2.4182 C0            1 Compound
     389 C0          36.5832     0.7867    -3.0434 C0            1 Compound
     390 C0          35.2541     1.0805    -3.8053 C0            1 Compound
     391 C0          33.9124     1.1016    -3.0339 C0            1 Compound
     392 C0          33.8357     2.0721    -1.8423 C0            1 Compound
     393 C0          33.9743     3.5458    -2.2496 C0            1 Compound
     394 C0          33.8032     4.4662    -1.0426 C0            1 Compound
     395 C0          36.6344    -1.6925    -3.5373 C0            1 Compound
     396 C0          37.4072    -2.9943    -3.3609 C0            1 Compound
     397 C0          37.0055    -4.0240    -4.4338 C0            1 Compound
     398 C0          37.7400    -5.3634    -4.2500 C0            1 Compound
     399 C0          37.1463    -6.4472    -5.1690 C0            1 Compound
     400 C0          37.6714    -7.8663    -4.8724 C0            1 Compound
     401 C0          37.1836    -8.4027    -3.5117 C0            1 Compound
     402 C0          37.6291    -9.8404    -3.2696 C0            1 Compound
     403 H6          34.9518    -0.9109    -1.4799 H6            1 Compound
     404 H6          36.0747     0.2089    -0.6562 H6            1 Compound
     405 H6          37.9254    -0.6033    -2.1171 H6            1 Compound
     406 H6          37.3820     0.9410    -3.8036 H6            1 Compound
     407 H6          36.7496     1.5785    -2.2820 H6            1 Compound
     408 H6          35.1500     0.3624    -4.6447 H6            1 Compound
     409 H6          35.3723     2.0814    -4.2708 H6            1 Compound
     410 H6          33.6485     0.0860    -2.7004 H6            1 Compound
     411 H6          33.1103     1.3761    -3.7539 H6            1 Compound
     412 H6          34.6011     1.8220    -1.0827 H6            1 Compound
     413 H6          32.8369     1.9378    -1.3674 H6            1 Compound
     414 H6          34.9744     3.7289    -2.6942 H6            1 Compound
     415 H6          33.1932     3.7974    -3.0002 H6            1 Compound
     416 H6          32.8001     4.3241    -0.5861 H6            1 Compound
     417 H6          33.8979     5.5248    -1.3638 H6            1 Compound
     418 H6          34.5829     4.2536    -0.2804 H6            1 Compound
     419 H6          37.0024    -1.2889    -4.5072 H6            1 Compound
     420 H6          35.5417    -1.8752    -3.6420 H6            1 Compound
     421 H6          38.4995    -2.7918    -3.4009 H6            1 Compound
     422 H6          37.1656    -3.3949    -2.3851 H6            1 Compound
     423 H6          35.9113    -4.2005    -4.3270 H6            1 Compound
     424 H6          37.1999    -3.6304    -5.4551 H6            1 Compound
     425 H6          38.8287    -5.2448    -4.4375 H6            1 Compound
     426 H6          37.6311    -5.6769    -3.2068 H6            1 Compound
     427 H6          36.0386    -6.4728    -5.0654 H6            1 Compound
     428 H6          37.3844    -6.1769    -6.2203 H6            1 Compound
     429 H6          38.7814    -7.8824    -4.9252 H6            1 Compound
     430 H6          37.2731    -8.5411    -5.6613 H6            1 Compound
     431 H6          36.0719    -8.3693    -3.4775 H6            1 Compound
     432 H6          37.5880    -7.7920    -2.6857 H6            1 Compound
     433 H6          37.2423   -10.1837    -2.2855 H6            1 Compound
     434 H6          37.2291   -10.5102    -4.0595 H6            1 Compound
     435 H6          38.7375    -9.9023    -3.2558 H6            1 Compound
     436 C0          35.7198    -3.2714    -0.0949 C0            1 Compound
     437 C0          36.6718    -4.4982    -0.0733 C0            1 Compound
     438 C0          36.1050    -5.6245    -1.0049 C0            1 Compound
     439 C0          34.8454    -6.4436    -0.6255 C0            1 Compound
     440 C0          33.4741    -5.7343    -0.6485 C0            1 Compound
     441 C0          33.0776    -5.0608    -1.9810 C0            1 Compound
     442 C0          33.0301    -6.0155    -3.1790 C0            1 Compound
     443 C0          32.5609    -5.2750    -4.4311 C0            1 Compound
     444 C0          36.9296    -5.1336     1.3238 C0            1 Compound
     445 C0          37.6867    -4.2521     2.2996 C0            1 Compound
     446 C0          38.0106    -4.9811     3.6033 C0            1 Compound
     447 C0          38.8097    -4.0521     4.5211 C0            1 Compound
     448 C0          39.1547    -4.7393     5.8467 C0            1 Compound
     449 C0          40.0189    -3.8584     6.7634 C0            1 Compound
     450 C0          39.3129    -2.5647     7.1995 C0            1 Compound
     451 C0          40.1849    -1.7627     8.1591 C0            1 Compound
     452 H6          34.9234    -3.5707     0.6120 H6            1 Compound
     453 H6          35.2245    -3.2334    -1.0764 H6            1 Compound
     454 H6          37.6475    -4.1971    -0.5050 H6            1 Compound
     455 H6          36.9210    -6.3712    -1.0819 H6            1 Compound
     456 H6          35.9218    -5.2204    -2.0143 H6            1 Compound
     457 H6          34.9916    -6.9216     0.3644 H6            1 Compound
     458 H6          34.7824    -7.2774    -1.3573 H6            1 Compound
     459 H6          33.4178    -4.9857     0.1596 H6            1 Compound
     460 H6          32.7029    -6.4989    -0.4095 H6            1 Compound
     461 H6          33.7637    -4.2332    -2.2271 H6            1 Compound
     462 H6          32.0676    -4.6201    -1.8416 H6            1 Compound
     463 H6          34.0410    -6.4296    -3.3769 H6            1 Compound
     464 H6          32.3290    -6.8511    -2.9683 H6            1 Compound
     465 H6          31.5391    -4.8657    -4.2770 H6            1 Compound
     466 H6          32.5381    -5.9718    -5.2946 H6            1 Compound
     467 H6          33.2526    -4.4378    -4.6684 H6            1 Compound
     468 H6          37.5483    -6.0462     1.1711 H6            1 Compound
     469 H6          35.9684    -5.4382     1.7904 H6            1 Compound
     470 H6          38.6449    -3.9597     1.8278 H6            1 Compound
     471 H6          37.0647    -3.3737     2.5463 H6            1 Compound
     472 H6          37.0655    -5.2876     4.1035 H6            1 Compound
     473 H6          38.6142    -5.8894     3.3833 H6            1 Compound
     474 H6          39.7518    -3.7540     4.0087 H6            1 Compound
     475 H6          38.1997    -3.1448     4.7109 H6            1 Compound
     476 H6          38.2198    -5.0254     6.3764 H6            1 Compound
     477 H6          39.7286    -5.6666     5.6275 H6            1 Compound
     478 H6          40.9712    -3.6094     6.2450 H6            1 Compound
     479 H6          40.2624    -4.4543     7.6700 H6            1 Compound
     480 H6          38.3558    -2.8154     7.7062 H6            1 Compound
     481 H6          39.0985    -1.9226     6.3202 H6            1 Compound
     482 H6          39.6517    -0.8353     8.4568 H6            1 Compound
     483 H6          40.4022    -2.3579     9.0713 H6            1 Compound
     484 H6          41.1406    -1.4823     7.6671 H6            1 Compound
     485 H5          -4.2471     1.1159     1.1320 H5            1 Compound
     486 H5          44.6510    -1.2630     3.0622 H5            1 Compound
@<TRIPOS>BOND
       1        2        1 1
       2        8        1 1
       3       24        1 1
       4       73        1 1
       5        3        2 1
       6        6        2 1
       7        4        3 1
       8        7        3 1
       9        5        4 1
      10        6        5 1
      11      485        5 1
      12       12        6 1
      13        8        7 1
      14       11        7 1
      15        9        8 1
      16       10        9 1
      17       13        9 1
      18       11       10 1
      19       16       10 1
      20       15       14 1
      21       22       14 1
      22       16       15 1
      23       23       15 1
      24       17       16 1
      25       18       17 1
      26       21       17 1
      27       19       18 1
      28       20       19 1
      29       21       20 1
      30       22       21 1
      31      126       22 1
      32       25       24 1
      33       40       24 1
      34       41       24 1
      35       26       25 1
      36       32       25 1
      37       42       25 1
      38       27       26 1
      39       43       26 1
      40       44       26 1
      41       28       27 1
      42       45       27 1
      43       46       27 1
      44       29       28 1
      45       47       28 1
      46       48       28 1
      47       30       29 1
      48       49       29 1
      49       50       29 1
      50       31       30 1
      51       51       30 1
      52       52       30 1
      53       53       31 1
      54       54       31 1
      55       55       31 1
      56       33       32 1
      57       56       32 1
      58       57       32 1
      59       34       33 1
      60       58       33 1
      61       59       33 1
      62       35       34 1
      63       60       34 1
      64       61       34 1
      65       36       35 1
      66       62       35 1
      67       63       35 1
      68       37       36 1
      69       64       36 1
      70       65       36 1
      71       38       37 1
      72       66       37 1
      73       67       37 1
      74       39       38 1
      75       68       38 1
      76       69       38 1
      77       70       39 1
      78       71       39 1
      79       72       39 1
      80       74       73 1
      81       89       73 1
      82       90       73 1
      83       75       74 1
      84       81       74 1
      85       91       74 1
      86       76       75 1
      87       92       75 1
      88       93       75 1
      89       77       76 1
      90       94       76 1
      91       95       76 1
      92       78       77 1
      93       96       77 1
      94       97       77 1
      95       79       78 1
      96       98       78 1
      97       99       78 1
      98       80       79 1
      99      100       79 1
     100      101       79 1
     101      102       80 1
     102      103       80 1
     103      104       80 1
     104       82       81 1
     105      105       81 1
     106      106       81 1
     107       83       82 1
     108      107       82 1
     109      108       82 1
     110       84       83 1
     111      109       83 1
     112      110       83 1
     113       85       84 1
     114      111       84 1
     115      112       84 1
     116       86       85 1
     117      113       85 1
     118      114       85 1
     119       87       86 1
     120      115       86 1
     121      116       86 1
     122       88       87 1
     123      117       87 1
     124      118       87 1
     125      119       88 1
     126      120       88 1
     127      121       88 1
     128      123      122 1
     129      129      122 1
     130      145      122 1
     131      194      122 1
     132      124      123 1
     133      127      123 1
     134      125      124 1
     135      128      124 1
     136      126      125 1
     137      127      126 1
     138      133      127 1
     139      129      128 1
     140      132      128 1
     141      130      129 1
     142      131      130 1
     143      134      130 1
     144      132      131 1
     145      137      131 1
     146      136      135 1
     147      143      135 1
     148      137      136 1
     149      144      136 1
     150      138      137 1
     151      139      138 1
     152      142      138 1
     153      140      139 1
     154      141      140 1
     155      142      141 1
     156      143      142 1
     157      247      143 1
     158      146      145 1
     159      161      145 1
     160      162      145 1
     161      147      146 1
     162      153      146 1
     163      163      146 1
     164      148      147 1
     165      164      147 1
     166      165      147 1
     167      149      148 1
     168      166      148 1
     169      167      148 1
     170      150      149 1
     171      168      149 1
     172      169      149 1
     173      151      150 1
     174      170      150 1
     175      171      150 1
     176      152      151 1
     177      172      151 1
     178      173      151 1
     179      174      152 1
     180      175      152 1
     181      176      152 1
     182      154      153 1
     183      177      153 1
     184      178      153 1
     185      155      154 1
     186      179      154 1
     187      180      154 1
     188      156      155 1
     189      181      155 1
     190      182      155 1
     191      157      156 1
     192      183      156 1
     193      184      156 1
     194      158      157 1
     195      185      157 1
     196      186      157 1
     197      159      158 1
     198      187      158 1
     199      188      158 1
     200      160      159 1
     201      189      159 1
     202      190      159 1
     203      191      160 1
     204      192      160 1
     205      193      160 1
     206      195      194 1
     207      210      194 1
     208      211      194 1
     209      196      195 1
     210      202      195 1
     211      212      195 1
     212      197      196 1
     213      213      196 1
     214      214      196 1
     215      198      197 1
     216      215      197 1
     217      216      197 1
     218      199      198 1
     219      217      198 1
     220      218      198 1
     221      200      199 1
     222      219      199 1
     223      220      199 1
     224      201      200 1
     225      221      200 1
     226      222      200 1
     227      223      201 1
     228      224      201 1
     229      225      201 1
     230      203      202 1
     231      226      202 1
     232      227      202 1
     233      204      203 1
     234      228      203 1
     235      229      203 1
     236      205      204 1
     237      230      204 1
     238      231      204 1
     239      206      205 1
     240      232      205 1
     241      233      205 1
     242      207      206 1
     243      234      206 1
     244      235      206 1
     245      208      207 1
     246      236      207 1
     247      237      207 1
     248      209      208 1
     249      238      208 1
     250      239      208 1
     251      240      209 1
     252      241      209 1
     253      242      209 1
     254      244      243 1
     255      250      243 1
     256      266      243 1
     257      315      243 1
     258      245      244 1
     259      248      244 1
     260      246      245 1
     261      249      245 1
     262      247      246 1
     263      248      247 1
     264      254      248 1
     265      250      249 1
     266      253      249 1
     267      251      250 1
     268      252      251 1
     269      255      251 1
     270      253      252 1
     271      258      252 1
     272      257      256 1
     273      264      256 1
     274      258      257 1
     275      265      257 1
     276      259      258 1
     277      260      259 1
     278      263      259 1
     279      261      260 1
     280      262      261 1
     281      263      262 1
     282      264      263 1
     283      368      264 1
     284      267      266 1
     285      282      266 1
     286      283      266 1
     287      268      267 1
     288      274      267 1
     289      284      267 1
     290      269      268 1
     291      285      268 1
     292      286      268 1
     293      270      269 1
     294      287      269 1
     295      288      269 1
     296      271      270 1
     297      289      270 1
     298      290      270 1
     299      272      271 1
     300      291      271 1
     301      292      271 1
     302      273      272 1
     303      293      272 1
     304      294      272 1
     305      295      273 1
     306      296      273 1
     307      297      273 1
     308      275      274 1
     309      298      274 1
     310      299      274 1
     311      276      275 1
     312      300      275 1
     313      301      275 1
     314      277      276 1
     315      302      276 1
     316      303      276 1
     317      278      277 1
     318      304      277 1
     319      305      277 1
     320      279      278 1
     321      306      278 1
     322      307      278 1
     323      280      279 1
     324      308      279 1
     325      309      279 1
     326      281      280 1
     327      310      280 1
     328      311      280 1
     329      312      281 1
     330      313      281 1
     331      314      281 1
     332      316      315 1
     333      331      315 1
     334      332      315 1
     335      317      316 1
     336      323      316 1
     337      333      316 1
     338      318      317 1
     339      334      317 1
     340      335      317 1
     341      319      318 1
     342      336      318 1
     343      337      318 1
     344      320      319 1
     345      338      319 1
     346      339      319 1
     347      321      320 1
     348      340      320 1
     349      341      320 1
     350      322      321 1
     351      342      321 1
     352      343      321 1
     353      344      322 1
     354      345      322 1
     355      346      322 1
     356      324      323 1
     357      347      323 1
     358      348      323 1
     359      325      324 1
     360      349      324 1
     361      350      324 1
     362      326      325 1
     363      351      325 1
     364      352      325 1
     365      327      326 1
     366      353      326 1
     367      354      326 1
     368      328      327 1
     369      355      327 1
     370      356      327 1
     371      329      328 1
     372      357      328 1
     373      358      328 1
     374      330      329 1
     375      359      329 1
     376      360      329 1
     377      361      330 1
     378      362      330 1
     379      363      330 1
     380      365      364 1
     381      371      364 1
     382      387      364 1
     383      436      364 1
     384      366      365 1
     385      369      365 1
     386      367      366 1
     387      370      366 1
     388      368      367 1
     389      369      368 1
     390      375      369 1
     391      371      370 1
     392      374      370 1
     393      372      371 1
     394      373      372 1
     395      376      372 1
     396      374      373 1
     397      379      373 1
     398      378      377 1
     399      385      377 1
     400      379      378 1
     401      386      378 1
     402      380      379 1
     403      381      380 1
     404      384      380 1
     405      382      381 1
     406      383      382 1
     407      384      383 1
     408      385      384 1
     409      486      385 1
     410      388      387 1
     411      403      387 1
     412      404      387 1
     413      389      388 1
     414      395      388 1
     415      405      388 1
     416      390      389 1
     417      406      389 1
     418      407      389 1
     419      391      390 1
     420      408      390 1
     421      409      390 1
     422      392      391 1
     423      410      391 1
     424      411      391 1
     425      393      392 1
     426      412      392 1
     427      413      392 1
     428      394      393 1
     429      414      393 1
     430      415      393 1
     431      416      394 1
     432      417      394 1
     433      418      394 1
     434      396      395 1
     435      419      395 1
     436      420      395 1
     437      397      396 1
     438      421      396 1
     439      422      396 1
     440      398      397 1
     441      423      397 1
     442      424      397 1
     443      399      398 1
     444      425      398 1
     445      426      398 1
     446      400      399 1
     447      427      399 1
     448      428      399 1
     449      401      400 1
     450      429      400 1
     451      430      400 1
     452      402      401 1
     453      431      401 1
     454      432      401 1
     455      433      402 1
     456      434      402 1
     457      435      402 1
     458      437      436 1
     459      452      436 1
     460      453      436 1
     461      438      437 1
     462      444      437 1
     463      454      437 1
     464      439      438 1
     465      455      438 1
     466      456      438 1
     467      440      439 1
     468      457      439 1
     469      458      439 1
     470      441      440 1
     471      459      440 1
     472      460      440 1
     473      442      441 1
     474      461      441 1
     475      462      441 1
     476      443      442 1
     477      463      442 1
     478      464      442 1
     479      465      443 1
     480      466      443 1
     481      467      443 1
     482      445      444 1
     483      468      444 1
     484      469      444 1
     485      446      445 1
     486      470      445 1
     487      471      445 1
     488      447      446 1
     489      472      446 1
     490      473      446 1
     491      448      447 1
     492      474      447 1
     493      475      447 1
     494      449      448 1
     495      476      448 1
     496      477      448 1
     497      450      449 1
     498      478      449 1
     499      479      449 1
     500      451      450 1
     501      480      450 1
     502      481      450 1
     503      482      451 1
     504      483      451 1
     505      484      451 1
@<TRIPOS>SUBSTRUCTURE
       1 Compound        1 RESIDUE    0 **** ROOT      0
