@<TRIPOS>MOLECULE
Compound
124 128 1 0 1
SMALL
NO_CHARGES
@<TRIPOS>CRYSIN
   21.8713    15.9487    27.1679    90.0000    90.0000    90.0000  1  1
@<TRIPOS>ATOM
       1 C0          -0.1635     1.0847    -0.8884 C0            1 Compound
       2 C1          -0.9169     1.8789    -0.1261 C1            1 Compound
       3 C2          -0.1620     2.8296     0.4720 C2            1 Compound
       4 S3          -1.0690     3.7317     1.5503 S3            1 Compound
       5 C4          -2.5150     2.9009     1.1665 C4            1 Compound
       6 C5          -2.2622     1.8937     0.2262 C5            1 Compound
       7 C6           1.1004     2.7255     0.1036 C6            1 Compound
       8 C7           1.2367     1.6777    -0.9018 C7            1 Compound
       9 C8           2.4523     0.9703    -0.4562 C8            1 Compound
      10 C9           3.2575     1.7029     0.3499 C9            1 Compound
      11 S10          2.6117     3.3860     0.7280 S10           1 Compound
      12 H11         -3.4826     3.0999     1.6066 H11           1 Compound
      13 H12         -3.0074     1.2045    -0.1504 H12           1 Compound
      14 H13          2.6955    -0.0055    -0.8409 H13           1 Compound
      15 C14          5.5595     2.0289     1.4162 C14           1 Compound
      16 N15          5.4135     3.3640     1.6044 N15           1 Compound
      17 S16          6.8556     3.8033     2.2803 S16           1 Compound
      18 N17          7.6973     2.3862     2.3621 N17           1 Compound
      19 C18          6.8158     1.5005     1.8342 C18           1 Compound
      20 C19          7.0920     0.1513     1.6788 C19           1 Compound
      21 N20          6.1463    -0.6551     1.1278 N20           1 Compound
      22 C21          4.9362    -0.1861     0.7093 C21           1 Compound
      23 C22          4.5880     1.1860     0.8369 C22           1 Compound
      24 H23          8.0429    -0.2637     1.9857 H23           1 Compound
      25 H24          4.2532    -0.9078     0.2905 H24           1 Compound
      26 C25         -0.6077    -0.1176    -1.7124 C25           1 Compound
      27 C26         -0.1801    -1.4412    -0.9630 C26           1 Compound
      28 C27         -0.9940    -1.5942     0.3964 C27           1 Compound
      29 C28         -2.1928    -2.5893     0.3377 C28           1 Compound
      30 C29         -1.9754    -4.0018     0.9274 C29           1 Compound
      31 C30         -0.9690    -4.9091     0.2136 C30           1 Compound
      32 C31         -1.3425    -5.2795    -1.2295 C31           1 Compound
      33 C32         -2.7048    -5.9822    -1.3432 C32           1 Compound
      34 C33         -2.9697    -6.4180    -2.7794 C33           1 Compound
      35 C34         -0.2056    -1.6833     1.7512 C34           1 Compound
      36 C29          0.7301    -0.4886     1.9758 C29           1 Compound
      37 C30          1.0965    -0.1559     3.4288 C30           1 Compound
      38 C30          1.9800    -1.1736     4.1599 C30           1 Compound
      39 C30          2.3043    -0.7158     5.6046 C30           1 Compound
      40 C31          3.1409     0.5842     5.6691 C31           1 Compound
      41 C32          3.4147     1.0809     7.0993 C32           1 Compound
      42 C33          4.2725     0.1300     7.9297 C33           1 Compound
      43 C35         -0.1327     0.2563    -3.1542 C35           1 Compound
      44 C36         -0.4810    -0.4063    -4.5292 C36           1 Compound
      45 C37         -1.6982    -1.3485    -4.5905 C37           1 Compound
      46 C29         -2.9844    -0.7078    -4.0507 C29           1 Compound
      47 C30         -4.2004    -1.5931    -4.3503 C30           1 Compound
      48 C31         -5.4697    -1.0132    -3.7169 C31           1 Compound
      49 C32         -6.6998    -1.8497    -4.0867 C32           1 Compound
      50 C33         -7.9508    -1.3214    -3.3910 C33           1 Compound
      51 C37          0.7839    -0.9711    -5.2434 C37           1 Compound
      52 C29          0.6913    -0.8540    -6.7883 C29           1 Compound
      53 C30          2.0488    -1.1342    -7.4589 C30           1 Compound
      54 C30          2.1189    -0.7003    -8.9369 C30           1 Compound
      55 C30          1.1346    -1.4421    -9.8570 C30           1 Compound
      56 C38          1.2164    -1.0144   -11.3396 C38           1 Compound
      57 C39          2.3210    -1.6656   -12.2034 C39           1 Compound
      58 C40          3.7642    -1.3433   -11.8291 C40           1 Compound
      59 H41          0.9073    -1.4168    -0.7630 H41           1 Compound
      60 H41         -0.3551    -2.3217    -1.6105 H41           1 Compound
      61 H42         -1.5268    -0.6341     0.4965 H42           1 Compound
      62 H43         -2.6363    -2.6169    -0.6809 H43           1 Compound
      63 H44         -2.9819    -2.1665     1.0017 H44           1 Compound
      64 H45         -2.9584    -4.5154     0.9723 H45           1 Compound
      65 H45         -1.6560    -3.9029     1.9867 H45           1 Compound
      66 H46          0.0331    -4.4318     0.2235 H46           1 Compound
      67 H46         -0.8980    -5.8514     0.8025 H46           1 Compound
      68 H46         -1.3447    -4.3734    -1.8665 H46           1 Compound
      69 H46         -0.5521    -5.9667    -1.6033 H46           1 Compound
      70 H47         -3.5187    -5.2906    -1.0401 H47           1 Compound
      71 H47         -2.7288    -6.8785    -0.6853 H47           1 Compound
      72 H48         -2.1966    -7.1454    -3.1064 H48           1 Compound
      73 H48         -2.9558    -5.5373    -3.4565 H48           1 Compound
      74 H48         -3.9662    -6.9033    -2.8434 H48           1 Compound
      75 H44         -0.9749    -1.6482     2.5548 H44           1 Compound
      76 H44          0.3637    -2.6306     1.8582 H44           1 Compound
      77 H46          1.6407    -0.6114     1.3637 H46           1 Compound
      78 H46          0.1834     0.4101     1.6617 H46           1 Compound
      79 H46          0.1619     0.0072     4.0094 H46           1 Compound
      80 H46          1.6398     0.8084     3.3697 H46           1 Compound
      81 H46          2.9262    -1.3305     3.5981 H46           1 Compound
      82 H46          1.4361    -2.1412     4.2135 H46           1 Compound
      83 H46          1.3525    -0.5702     6.1621 H46           1 Compound
      84 H46          2.8717    -1.5328     6.0961 H46           1 Compound
      85 H46          4.1040     0.4366     5.1338 H46           1 Compound
      86 H46          2.5914     1.4094     5.1758 H46           1 Compound
      87 H47          3.9572     2.0497     7.0265 H47           1 Compound
      88 H47          2.4522     1.2672     7.6240 H47           1 Compound
      89 H48          5.2466    -0.0469     7.4269 H48           1 Compound
      90 H48          3.7545    -0.8363     8.0922 H48           1 Compound
      91 H48          4.4653     0.5877     8.9236 H48           1 Compound
      92 H49         -0.6306     1.2514    -3.2653 H49           1 Compound
      93 H49          0.9467     0.5109    -3.1449 H49           1 Compound
      94 H50         -0.7437     0.4726    -5.1656 H50           1 Compound
      95 H44         -1.8649    -1.6071    -5.6591 H44           1 Compound
      96 H44         -1.4866    -2.2881    -4.0360 H44           1 Compound
      97 H46         -2.8899    -0.5609    -2.9557 H46           1 Compound
      98 H46         -3.1465     0.2814    -4.5332 H46           1 Compound
      99 H46         -4.0331    -2.6162    -3.9475 H46           1 Compound
     100 H46         -4.3291    -1.6600    -5.4542 H46           1 Compound
     101 H46         -5.3417    -1.0053    -2.6118 H46           1 Compound
     102 H46         -5.6246     0.0312    -4.0674 H46           1 Compound
     103 H47         -6.5449    -2.9075    -3.7825 H47           1 Compound
     104 H47         -6.8531    -1.8137    -5.1880 H47           1 Compound
     105 H48         -8.8284    -1.9341    -3.6865 H48           1 Compound
     106 H48         -7.8290    -1.3850    -2.2884 H48           1 Compound
     107 H48         -8.1392    -0.2649    -3.6773 H48           1 Compound
     108 H44          1.0322    -1.9960    -4.8950 H44           1 Compound
     109 H44          1.6426    -0.3152    -4.9847 H44           1 Compound
     110 H46          0.4316     0.2009    -7.0328 H46           1 Compound
     111 H46         -0.0992    -1.5151    -7.1982 H46           1 Compound
     112 H46          2.3136    -2.2070    -7.3487 H46           1 Compound
     113 H46          2.8271    -0.5314    -6.9395 H46           1 Compound
     114 H46          3.1586    -0.8581    -9.2539 H46           1 Compound
     115 H46          1.9210     0.3936    -9.0070 H46           1 Compound
     116 H46          0.1174    -1.1668    -9.5049 H46           1 Compound
     117 H46          1.2421    -2.5444    -9.7760 H46           1 Compound
     118 H46          0.2653    -1.3442   -11.8133 H46           1 Compound
     119 H46          1.2487     0.0947   -11.4184 H46           1 Compound
     120 H47          2.1915    -2.7695   -12.2053 H47           1 Compound
     121 H47          2.1668    -1.3051   -13.2443 H47           1 Compound
     122 H51          4.4407    -1.7718   -12.5988 H51           1 Compound
     123 H51          4.0471    -1.8251   -10.8762 H51           1 Compound
     124 H51          3.9246    -0.2452   -11.7878 H51           1 Compound
@<TRIPOS>BOND
       1        2        1 1
       2        8        1 1
       3       26        1 1
       4        3        2 1
       5        6        2 1
       6        4        3 1
       7        7        3 1
       8        5        4 1
       9        6        5 1
      10       12        5 1
      11       13        6 1
      12        8        7 1
      13       11        7 1
      14        9        8 1
      15       10        9 1
      16       14        9 1
      17       11       10 1
      18       23       10 1
      19       16       15 1
      20       19       15 1
      21       23       15 1
      22       17       16 1
      23       18       17 1
      24       19       18 1
      25       20       19 1
      26       21       20 1
      27       24       20 1
      28       22       21 1
      29       23       22 1
      30       25       22 1
      31       27       26 1
      32       43       26 1
      33       28       27 1
      34       59       27 1
      35       60       27 1
      36       29       28 1
      37       35       28 1
      38       61       28 1
      39       30       29 1
      40       62       29 1
      41       63       29 1
      42       31       30 1
      43       64       30 1
      44       65       30 1
      45       32       31 1
      46       66       31 1
      47       67       31 1
      48       33       32 1
      49       68       32 1
      50       69       32 1
      51       34       33 1
      52       70       33 1
      53       71       33 1
      54       72       34 1
      55       73       34 1
      56       74       34 1
      57       36       35 1
      58       75       35 1
      59       76       35 1
      60       37       36 1
      61       77       36 1
      62       78       36 1
      63       38       37 1
      64       79       37 1
      65       80       37 1
      66       39       38 1
      67       81       38 1
      68       82       38 1
      69       40       39 1
      70       83       39 1
      71       84       39 1
      72       41       40 1
      73       85       40 1
      74       86       40 1
      75       42       41 1
      76       87       41 1
      77       88       41 1
      78       89       42 1
      79       90       42 1
      80       91       42 1
      81       44       43 1
      82       92       43 1
      83       93       43 1
      84       45       44 1
      85       51       44 1
      86       94       44 1
      87       46       45 1
      88       95       45 1
      89       96       45 1
      90       47       46 1
      91       97       46 1
      92       98       46 1
      93       48       47 1
      94       99       47 1
      95      100       47 1
      96       49       48 1
      97      101       48 1
      98      102       48 1
      99       50       49 1
     100      103       49 1
     101      104       49 1
     102      105       50 1
     103      106       50 1
     104      107       50 1
     105       52       51 1
     106      108       51 1
     107      109       51 1
     108       53       52 1
     109      110       52 1
     110      111       52 1
     111       54       53 1
     112      112       53 1
     113      113       53 1
     114       55       54 1
     115      114       54 1
     116      115       54 1
     117       56       55 1
     118      116       55 1
     119      117       55 1
     120       57       56 1
     121      118       56 1
     122      119       56 1
     123       58       57 1
     124      120       57 1
     125      121       57 1
     126      122       58 1
     127      123       58 1
     128      124       58 1
@<TRIPOS>SUBSTRUCTURE
       1 Compound        1 RESIDUE    0 **** ROOT      0
