@<TRIPOS>MOLECULE
Compound
147 151 1 0 1
SMALL
NO_CHARGES
@<TRIPOS>CRYSIN
   19.1805    18.0597    24.4637    90.0000    90.0000    90.0000  1  1
@<TRIPOS>ATOM
       1 C           -1.3001    -0.4237    -0.0955 C             1 Compound
       2 C           -1.9996    -1.5072     0.7968 C             1 Compound
       3 C           -1.2198    -2.6122     0.9686 C             1 Compound
       4 S           -1.9464    -3.8502     1.8248 S             1 Compound
       5 C           -3.3860    -2.9741     1.9753 C             1 Compound
       6 C           -3.2606    -1.7173     1.3899 C             1 Compound
       7 C            0.0344    -2.4135     0.3751 C             1 Compound
       8 C            0.0519    -1.2222    -0.2815 C             1 Compound
       9 C            1.3595    -0.9532    -0.7409 C             1 Compound
      10 C            2.2954    -1.9056    -0.2968 C             1 Compound
      11 S            1.5125    -3.1948     0.4730 S             1 Compound
      12 H           -4.2920    -3.3298     2.4447 H             1 Compound
      13 H           -4.1070    -1.0709     1.4002 H             1 Compound
      14 H            1.6746    -0.0492    -1.2083 H             1 Compound
      15 C            4.1997    -0.5006     0.5881 C             1 Compound
      16 N            3.3859     0.4707     1.0600 N             1 Compound
      17 S            4.4266     1.5057     1.8159 S             1 Compound
      18 N            5.8982     0.7974     1.5947 N             1 Compound
      19 C            5.5781    -0.3207     0.8961 C             1 Compound
      20 C            6.4950    -1.2799     0.5147 C             1 Compound
      21 N            6.0549    -2.4001    -0.1222 N             1 Compound
      22 C            4.7313    -2.6143    -0.4151 C             1 Compound
      23 C            3.7526    -1.6555    -0.1003 C             1 Compound
      24 H            7.5465    -1.1565     0.7509 H             1 Compound
      25 H            4.4486    -3.5391    -0.8978 H             1 Compound
      26 C           -0.9421     1.0867     0.3567 C             1 Compound
      27 C            0.4228     1.5701     0.9038 C             1 Compound
      28 C            0.8124     3.0310     0.4665 C             1 Compound
      29 C            0.7592     3.4494    -1.0518 C             1 Compound
      30 C            1.2682     2.4280    -2.0966 C             1 Compound
      31 C            1.6166     3.0016    -3.4944 C             1 Compound
      32 C            0.6610     4.0173    -4.1479 C             1 Compound
      33 C           -0.7414     3.5185    -4.5138 C             1 Compound
      34 C           -1.6043     4.6546    -5.1213 C             1 Compound
      35 C           -1.1174     5.1357    -6.5099 C             1 Compound
      36 C           -1.9173     6.3289    -7.0669 C             1 Compound
      37 C           -1.6883     7.6199    -6.2744 C             1 Compound
      38 C            0.5440     1.4142     2.4318 C             1 Compound
      39 C            0.1934     0.0012     2.9207 C             1 Compound
      40 C            0.3756    -0.1372     4.4258 C             1 Compound
      41 C            0.0064    -1.5343     4.9605 C             1 Compound
      42 C           -1.5037    -1.8427     4.8970 C             1 Compound
      43 C           -1.8126    -3.1793     5.6019 C             1 Compound
      44 C           -3.2787    -3.6399     5.5030 C             1 Compound
      45 C           -4.2926    -2.6531     6.0784 C             1 Compound
      46 H           -0.9561     1.6242    -0.5974 H             1 Compound
      47 H           -1.6758     1.5821     0.9628 H             1 Compound
      48 H            1.1973     1.0085     0.4670 H             1 Compound
      49 H            1.8700     3.1619     0.7873 H             1 Compound
      50 H            0.2070     3.7747     1.0251 H             1 Compound
      51 H            1.3569     4.3823    -1.1343 H             1 Compound
      52 H           -0.2845     3.7063    -1.3379 H             1 Compound
      53 H            0.5057     1.6329    -2.2218 H             1 Compound
      54 H            2.2139     1.9739    -1.7327 H             1 Compound
      55 H            1.8000     2.1518    -4.1924 H             1 Compound
      56 H            2.5801     3.5430    -3.3850 H             1 Compound
      57 H            0.5716     4.8970    -3.4780 H             1 Compound
      58 H            1.1680     4.3461    -5.0780 H             1 Compound
      59 H           -1.2414     3.1658    -3.5876 H             1 Compound
      60 H           -0.6762     2.6708    -5.2273 H             1 Compound
      61 H           -2.6503     4.2940    -5.2383 H             1 Compound
      62 H           -1.6138     5.4943    -4.3962 H             1 Compound
      63 H           -0.0535     5.4418    -6.4891 H             1 Compound
      64 H           -1.2170     4.2847    -7.2191 H             1 Compound
      65 H           -3.0015     6.0892    -7.1023 H             1 Compound
      66 H           -1.5717     6.5182    -8.1071 H             1 Compound
      67 H           -2.0564     7.5301    -5.2333 H             1 Compound
      68 H           -0.6060     7.8734    -6.2584 H             1 Compound
      69 H           -2.2335     8.4572    -6.7592 H             1 Compound
      70 H           -0.1334     2.1389     2.9059 H             1 Compound
      71 H            1.5790     1.6731     2.7441 H             1 Compound
      72 H           -0.8661    -0.1935     2.6837 H             1 Compound
      73 H            0.8472    -0.7376     2.4169 H             1 Compound
      74 H           -0.2409     0.6173     4.9412 H             1 Compound
      75 H            1.4429     0.0570     4.6641 H             1 Compound
      76 H            0.5816    -2.3116     4.4138 H             1 Compound
      77 H            0.3240    -1.5725     6.0202 H             1 Compound
      78 H           -2.0633    -1.0369     5.4027 H             1 Compound
      79 H           -1.8281    -1.8818     3.8473 H             1 Compound
      80 H           -1.1880    -3.9763     5.1434 H             1 Compound
      81 H           -1.5359    -3.0909     6.6740 H             1 Compound
      82 H           -3.3757    -4.6025     6.0496 H             1 Compound
      83 H           -3.5347    -3.8416     4.4520 H             1 Compound
      84 H           -4.2832    -1.6975     5.5144 H             1 Compound
      85 H           -5.3122    -3.0873     5.9905 H             1 Compound
      86 H           -4.0802    -2.4598     7.1498 H             1 Compound
      87 C           -2.2694    -0.2637    -1.3274 C             1 Compound
      88 C           -3.7088     0.4030    -1.0633 C             1 Compound
      89 C           -3.8298     1.7539    -0.2019 C             1 Compound
      90 C           -4.1000     1.5254     1.3532 C             1 Compound
      91 C           -4.2653     2.7849     2.2627 C             1 Compound
      92 C           -2.9759     3.3327     2.9543 C             1 Compound
      93 C           -2.4507     2.5133     4.1875 C             1 Compound
      94 C           -3.3055     2.6839     5.4686 C             1 Compound
      95 C           -2.9229     1.7871     6.6795 C             1 Compound
      96 C           -1.5451     2.0254     7.3426 C             1 Compound
      97 C           -1.3600     1.1950     8.6405 C             1 Compound
      98 C           -1.3993    -0.3224     8.4406 C             1 Compound
      99 C           -4.5687     0.4785    -2.3681 C             1 Compound
     100 C           -3.9612     1.0304    -3.6772 C             1 Compound
     101 C           -3.3346    -0.0947    -4.5442 C             1 Compound
     102 C           -2.8993     0.3322    -5.9606 C             1 Compound
     103 C           -4.0356     0.9494    -6.7961 C             1 Compound
     104 C           -3.5830     1.2413    -8.2352 C             1 Compound
     105 C           -4.6304     2.0282    -9.0438 C             1 Compound
     106 C           -5.9496     1.2813    -9.2424 C             1 Compound
     107 H           -1.7373     0.3347    -2.0946 H             1 Compound
     108 H           -2.4389    -1.2652    -1.7816 H             1 Compound
     109 H           -4.3300    -0.3014    -0.4970 H             1 Compound
     110 H           -4.7495     2.2960    -0.5055 H             1 Compound
     111 H           -3.0299     2.4753    -0.4578 H             1 Compound
     112 H           -3.3856     0.8624     1.8660 H             1 Compound
     113 H           -5.0812     1.0031     1.3789 H             1 Compound
     114 H           -4.9714     2.5400     3.0820 H             1 Compound
     115 H           -4.7518     3.5750     1.6545 H             1 Compound
     116 H           -3.1782     4.3600     3.3263 H             1 Compound
     117 H           -2.1867     3.4273     2.1797 H             1 Compound
     118 H           -2.3594     1.4442     3.9099 H             1 Compound
     119 H           -1.4470     2.9008     4.4650 H             1 Compound
     120 H           -4.3533     2.4256     5.2262 H             1 Compound
     121 H           -3.2791     3.7499     5.7865 H             1 Compound
     122 H           -3.6877     1.9745     7.4640 H             1 Compound
     123 H           -3.0148     0.7322     6.3671 H             1 Compound
     124 H           -0.7171     1.8055     6.6474 H             1 Compound
     125 H           -1.4624     3.0962     7.6271 H             1 Compound
     126 H           -2.1495     1.4720     9.3710 H             1 Compound
     127 H           -0.3749     1.4480     9.0905 H             1 Compound
     128 H           -2.3723    -0.6574     8.0286 H             1 Compound
     129 H           -0.5810    -0.6363     7.7714 H             1 Compound
     130 H           -1.2560    -0.8336     9.4171 H             1 Compound
     131 H           -5.4749     1.0773    -2.1302 H             1 Compound
     132 H           -4.9806    -0.5287    -2.6006 H             1 Compound
     133 H           -4.8293     1.3995    -4.2567 H             1 Compound
     134 H           -3.2868     1.8918    -3.4928 H             1 Compound
     135 H           -4.0928    -0.8990    -4.6738 H             1 Compound
     136 H           -2.4579    -0.5433    -4.0409 H             1 Compound
     137 H           -2.0619     1.0508    -5.8954 H             1 Compound
     138 H           -2.5284    -0.5799    -6.4800 H             1 Compound
     139 H           -4.8993     0.2511    -6.8134 H             1 Compound
     140 H           -4.3442     1.9090    -6.3328 H             1 Compound
     141 H           -2.6628     1.8644    -8.1989 H             1 Compound
     142 H           -3.3378     0.2886    -8.7552 H             1 Compound
     143 H           -4.2034     2.2468   -10.0466 H             1 Compound
     144 H           -4.8339     2.9973    -8.5382 H             1 Compound
     145 H           -6.4498     1.0849    -8.2722 H             1 Compound
     146 H           -6.6340     1.9062    -9.8551 H             1 Compound
     147 H           -5.7752     0.3213    -9.7720 H             1 Compound
@<TRIPOS>BOND
       1        2        1 1
       2        8        1 1
       3       26        1 1
       4       87        1 1
       5        3        2 1
       6        6        2 1
       7        4        3 1
       8        7        3 1
       9        5        4 1
      10        6        5 1
      11       12        5 1
      12       13        6 1
      13        8        7 1
      14       11        7 1
      15        9        8 1
      16       10        9 1
      17       14        9 1
      18       11       10 1
      19       23       10 1
      20       16       15 1
      21       19       15 1
      22       23       15 1
      23       17       16 1
      24       18       17 1
      25       19       18 1
      26       20       19 1
      27       21       20 1
      28       24       20 1
      29       22       21 1
      30       23       22 1
      31       25       22 1
      32       27       26 1
      33       46       26 1
      34       47       26 1
      35       28       27 1
      36       38       27 1
      37       48       27 1
      38       29       28 1
      39       49       28 1
      40       50       28 1
      41       30       29 1
      42       51       29 1
      43       52       29 1
      44       31       30 1
      45       53       30 1
      46       54       30 1
      47       32       31 1
      48       55       31 1
      49       56       31 1
      50       33       32 1
      51       57       32 1
      52       58       32 1
      53       34       33 1
      54       59       33 1
      55       60       33 1
      56       35       34 1
      57       61       34 1
      58       62       34 1
      59       36       35 1
      60       63       35 1
      61       64       35 1
      62       37       36 1
      63       65       36 1
      64       66       36 1
      65       67       37 1
      66       68       37 1
      67       69       37 1
      68       39       38 1
      69       70       38 1
      70       71       38 1
      71       40       39 1
      72       72       39 1
      73       73       39 1
      74       41       40 1
      75       74       40 1
      76       75       40 1
      77       42       41 1
      78       76       41 1
      79       77       41 1
      80       43       42 1
      81       78       42 1
      82       79       42 1
      83       44       43 1
      84       80       43 1
      85       81       43 1
      86       45       44 1
      87       82       44 1
      88       83       44 1
      89       84       45 1
      90       85       45 1
      91       86       45 1
      92       88       87 1
      93      107       87 1
      94      108       87 1
      95       89       88 1
      96       99       88 1
      97      109       88 1
      98       90       89 1
      99      110       89 1
     100      111       89 1
     101       91       90 1
     102      112       90 1
     103      113       90 1
     104       92       91 1
     105      114       91 1
     106      115       91 1
     107       93       92 1
     108      116       92 1
     109      117       92 1
     110       94       93 1
     111      118       93 1
     112      119       93 1
     113       95       94 1
     114      120       94 1
     115      121       94 1
     116       96       95 1
     117      122       95 1
     118      123       95 1
     119       97       96 1
     120      124       96 1
     121      125       96 1
     122       98       97 1
     123      126       97 1
     124      127       97 1
     125      128       98 1
     126      129       98 1
     127      130       98 1
     128      100       99 1
     129      131       99 1
     130      132       99 1
     131      101      100 1
     132      133      100 1
     133      134      100 1
     134      102      101 1
     135      135      101 1
     136      136      101 1
     137      103      102 1
     138      137      102 1
     139      138      102 1
     140      104      103 1
     141      139      103 1
     142      140      103 1
     143      105      104 1
     144      141      104 1
     145      142      104 1
     146      106      105 1
     147      143      105 1
     148      144      105 1
     149      145      106 1
     150      146      106 1
     151      147      106 1
@<TRIPOS>SUBSTRUCTURE
       1 Compound        1 RESIDUE    0 **** ROOT      0
