@<TRIPOS>MOLECULE
Polymer
486 505 1 0 1
SMALL
NO_CHARGES
@<TRIPOS>CRYSIN
   54.3246    22.3985    21.6491    90.0000    90.0000    90.0000  1  1
@<TRIPOS>ATOM
       1 C           -0.2788    -0.3561    -1.1710 C             1 Polymer 
       2 C           -1.3228     0.2092    -0.1941 C             1 Polymer 
       3 C           -0.7675     0.7490     0.9198 C             1 Polymer 
       4 S           -1.9156     1.3732     1.9596 S             1 Polymer 
       5 C           -3.1997     0.9330     0.9295 C             1 Polymer 
       6 C           -2.7080     0.3067    -0.2217 C             1 Polymer 
       7 C            0.6414     0.6122     0.8315 C             1 Polymer 
       8 C            0.9524    -0.0342    -0.3295 C             1 Polymer 
       9 C            2.3138    -0.2183    -0.4855 C             1 Polymer 
      10 C            3.0369     0.2919     0.6193 C             1 Polymer 
      11 S            1.9794     1.0189     1.7410 S             1 Polymer 
      12 H           -3.3275    -0.0615    -1.0283 H             1 Polymer 
      13 H            2.7338    -0.7009    -1.3544 H             1 Polymer 
      14 N            6.5878     1.0692     1.6754 N             1 Polymer 
      15 C            5.2218     1.1345     1.5787 C             1 Polymer 
      16 C            4.5036     0.2008     0.7973 C             1 Polymer 
      17 C            5.2203    -0.8436     0.2105 C             1 Polymer 
      18 N            4.6508    -1.8679    -0.4791 N             1 Polymer 
      19 S            5.9376    -2.8078    -0.8802 S             1 Polymer 
      20 N            7.2088    -1.9896    -0.2339 N             1 Polymer 
      21 C            6.6192    -0.9061     0.3381 C             1 Polymer 
      22 C            7.3117     0.1040     1.0492 C             1 Polymer 
      23 H            4.7055     1.9464     2.0713 H             1 Polymer 
      24 C           -0.3848     0.5870    -2.4315 C             1 Polymer 
      25 C            0.5235     0.7078    -3.7109 C             1 Polymer 
      26 C            0.3109     2.1280    -4.3587 C             1 Polymer 
      27 C           -0.9831     2.4386    -5.1704 C             1 Polymer 
      28 C           -2.3433     2.4756    -4.4410 C             1 Polymer 
      29 C           -2.4348     3.4433    -3.2456 C             1 Polymer 
      30 C           -2.2622     4.9144    -3.6446 C             1 Polymer 
      31 C           -2.4291     5.8294    -2.4334 C             1 Polymer 
      32 C            0.3232    -0.3507    -4.8390 C             1 Polymer 
      33 C            1.1273    -1.6378    -4.6843 C             1 Polymer 
      34 C            0.7565    -2.6625    -5.7767 C             1 Polymer 
      35 C            1.4974    -3.9995    -5.5914 C             1 Polymer 
      36 C            0.9380    -5.0813    -6.5355 C             1 Polymer 
      37 C            1.4624    -6.4999    -6.2313 C             1 Polymer 
      38 C            0.9365    -7.0484    -4.8889 C             1 Polymer 
      39 C            1.3862    -8.4846    -4.6424 C             1 Polymer 
      40 H           -1.4214     0.4940    -2.7776 H             1 Polymer 
      41 H           -0.2679     1.5884    -1.9634 H             1 Polymer 
      42 H            1.5870     0.7217    -3.3840 H             1 Polymer 
      43 H            1.1395     2.2579    -5.0911 H             1 Polymer 
      44 H            0.4692     2.9228    -3.5989 H             1 Polymer 
      45 H           -1.0700     1.7187    -6.0112 H             1 Polymer 
      46 H           -0.8342     3.4362    -5.6352 H             1 Polymer 
      47 H           -2.6262     1.4607    -4.1197 H             1 Polymer 
      48 H           -3.1226     2.7627    -5.1801 H             1 Polymer 
      49 H           -1.6896     3.1810    -2.4723 H             1 Polymer 
      50 H           -3.4434     3.3210    -2.7929 H             1 Polymer 
      51 H           -1.2527     5.0819    -4.0745 H             1 Polymer 
      52 H           -3.0283     5.1834    -4.4038 H             1 Polymer 
      53 H           -3.4382     5.7003    -1.9864 H             1 Polymer 
      54 H           -2.3135     6.8882    -2.7468 H             1 Polymer 
      55 H           -1.6594     5.5986    -1.6661 H             1 Polymer 
      56 H            0.6889     0.0624    -5.8060 H             1 Polymer 
      57 H           -0.7654    -0.5503    -4.9509 H             1 Polymer 
      58 H            2.2159    -1.4128    -4.7163 H             1 Polymer 
      59 H            0.8911    -2.0517    -3.7163 H             1 Polymer 
      60 H           -0.3369    -2.8526    -5.6938 H             1 Polymer 
      61 H            0.9660    -2.2564    -6.7903 H             1 Polymer 
      62 H            2.5902    -3.8723    -5.7489 H             1 Polymer 
      63 H            1.3588    -4.3242    -4.5552 H             1 Polymer 
      64 H           -0.1720    -5.1147    -6.4655 H             1 Polymer 
      65 H            1.2057    -4.8037    -7.5779 H             1 Polymer 
      66 H            2.5736    -6.5099    -6.2511 H             1 Polymer 
      67 H            1.0926    -7.1729    -7.0359 H             1 Polymer 
      68 H           -0.1758    -7.0250    -4.8907 H             1 Polymer 
      69 H            1.3061    -6.4387    -4.0446 H             1 Polymer 
      70 H            0.9724    -8.8379    -3.6729 H             1 Polymer 
      71 H            1.0161    -9.1527    -5.4483 H             1 Polymer 
      72 H            2.4941    -8.5386    -4.5952 H             1 Polymer 
      73 C           -0.6814    -1.8730    -1.3958 C             1 Polymer 
      74 C            0.3066    -3.0845    -1.3959 C             1 Polymer 
      75 C           -0.1950    -4.2084    -2.3668 C             1 Polymer 
      76 C           -1.4261    -5.0799    -2.0251 C             1 Polymer 
      77 C           -2.8111    -4.4059    -2.0658 C             1 Polymer 
      78 C           -3.1945    -3.7241    -3.3986 C             1 Polymer 
      79 C           -3.1984    -4.6670    -4.6077 C             1 Polymer 
      80 C           -3.6447    -3.9200    -5.8640 C             1 Polymer 
      81 C            0.5806    -3.7513    -0.0169 C             1 Polymer 
      82 C            1.3477    -2.8874     0.9648 C             1 Polymer 
      83 C            1.7151    -3.6381     2.2438 C             1 Polymer 
      84 C            2.5314    -2.7131     3.1507 C             1 Polymer 
      85 C            2.9087    -3.4030     4.4653 C             1 Polymer 
      86 C            3.7819    -2.5164     5.3686 C             1 Polymer 
      87 C            3.0770    -1.2236     5.8103 C             1 Polymer 
      88 C            3.9546    -0.4172     6.7606 C             1 Polymer 
      89 H           -1.4841    -2.1660    -0.6932 H             1 Polymer 
      90 H           -1.1678    -1.8321    -2.3817 H             1 Polymer 
      91 H            1.2796    -2.7452    -1.8023 H             1 Polymer 
      92 H            0.6498    -4.9241    -2.4467 H             1 Polymer 
      93 H           -0.3721    -3.7940    -3.3722 H             1 Polymer 
      94 H           -1.2819    -5.5670    -1.0412 H             1 Polymer 
      95 H           -1.4479    -5.9042    -2.7720 H             1 Polymer 
      96 H           -2.8939    -3.6665    -1.2511 H             1 Polymer 
      97 H           -3.5688    -5.1902    -1.8500 H             1 Polymer 
      98 H           -2.5168    -2.8832    -3.6229 H             1 Polymer 
      99 H           -4.2151    -3.3014    -3.2715 H             1 Polymer 
     100 H           -2.1776    -5.0655    -4.7860 H             1 Polymer 
     101 H           -3.8925    -5.5142    -4.4224 H             1 Polymer 
     102 H           -4.6735    -3.5217    -5.7308 H             1 Polymer 
     103 H           -3.6396    -4.6092    -6.7337 H             1 Polymer 
     104 H           -2.9555    -3.0743    -6.0773 H             1 Polymer 
     105 H            1.2114    -4.6515    -0.1962 H             1 Polymer 
     106 H           -0.3719    -4.0811     0.4496 H             1 Polymer 
     107 H            2.2923    -2.5787     0.4795 H             1 Polymer 
     108 H            0.7242    -2.0197     1.2415 H             1 Polymer 
     109 H            0.7870    -3.9618     2.7636 H             1 Polymer 
     110 H            2.3223    -4.5364     1.9930 H             1 Polymer 
     111 H            3.4603    -2.4052     2.6197 H             1 Polymer 
     112 H            1.9199    -1.8115     3.3601 H             1 Polymer 
     113 H            1.9856    -3.6966     5.0113 H             1 Polymer 
     114 H            3.4847    -4.3257     4.2325 H             1 Polymer 
     115 H            4.7262    -2.2642     4.8372 H             1 Polymer 
     116 H            4.0398    -3.1097     6.2730 H             1 Polymer 
     117 H            2.1247    -1.4753     6.3254 H             1 Polymer 
     118 H            2.8540    -0.5825     4.9322 H             1 Polymer 
     119 H            3.4215     0.5100     7.0595 H             1 Polymer 
     120 H            4.1797    -1.0094     7.6728 H             1 Polymer 
     121 H            4.9059    -0.1359     6.2605 H             1 Polymer 
     122 C           11.9351    -0.8496    -0.7519 C             1 Polymer 
     123 C           10.8470    -0.3363     0.1568 C             1 Polymer 
     124 C           11.2493     0.2503     1.3050 C             1 Polymer 
     125 S            9.9004     0.7702     2.1955 S             1 Polymer 
     126 C            8.7895     0.1241     1.0452 C             1 Polymer 
     127 C            9.4980    -0.3971    -0.0226 C             1 Polymer 
     128 C           12.6883     0.1793     1.3006 C             1 Polymer 
     129 C           13.0849    -0.4715     0.1581 C             1 Polymer 
     130 C           14.4464    -0.6301     0.0528 C             1 Polymer 
     131 C           15.1251    -0.1097     1.1731 C             1 Polymer 
     132 S           14.0056     0.6115     2.2517 S             1 Polymer 
     133 H            9.0834    -0.8257    -0.9202 H             1 Polymer 
     134 H           14.8953    -1.1096    -0.8034 H             1 Polymer 
     135 N           18.6893     0.6831     2.2048 N             1 Polymer 
     136 C           17.3215     0.7467     2.1224 C             1 Polymer 
     137 C           16.5944    -0.1973     1.3613 C             1 Polymer 
     138 C           17.3126    -1.2523     0.7844 C             1 Polymer 
     139 N           16.7417    -2.2894     0.1145 N             1 Polymer 
     140 S           18.0246    -3.2320    -0.2899 S             1 Polymer 
     141 N           19.2989    -2.4012     0.3316 N             1 Polymer 
     142 C           18.7141    -1.3103     0.8990 C             1 Polymer 
     143 C           19.4101    -0.2925     1.5802 C             1 Polymer 
     144 H           16.8073     1.5669     2.6052 H             1 Polymer 
     145 C           11.8258     0.1026    -2.0110 C             1 Polymer 
     146 C           12.7142     0.2557    -3.2921 C             1 Polymer 
     147 C           12.4582     1.6786    -3.9207 C             1 Polymer 
     148 C           11.1401     1.9767    -4.7016 C             1 Polymer 
     149 C            9.7897     1.9933    -3.9513 C             1 Polymer 
     150 C            9.6945     2.9608    -2.7550 C             1 Polymer 
     151 C            9.8348     4.4350    -3.1578 C             1 Polymer 
     152 C            9.6504     5.3509    -1.9500 C             1 Polymer 
     153 C           12.5002    -0.7970    -4.4203 C             1 Polymer 
     154 C           13.2717    -2.1004    -4.2536 C             1 Polymer 
     155 C           12.8759    -3.1217    -5.3386 C             1 Polymer 
     156 C           13.6076    -4.4642    -5.1613 C             1 Polymer 
     157 C           13.0196    -5.5425    -6.0911 C             1 Polymer 
     158 C           13.5425    -6.9636    -5.7984 C             1 Polymer 
     159 C           13.0446    -7.5083    -4.4443 C             1 Polymer 
     160 C           13.4922    -8.9461    -4.2058 C             1 Polymer 
     161 H           10.8001    -0.0129    -2.3769 H             1 Polymer 
     162 H           11.9121     1.1057    -1.5379 H             1 Polymer 
     163 H           13.7817     0.2809    -2.9801 H             1 Polymer 
     164 H           13.2683     1.8302    -4.6687 H             1 Polymer 
     165 H           12.6171     2.4690    -3.1559 H             1 Polymer 
     166 H           11.0485     1.2611    -5.5454 H             1 Polymer 
     167 H           11.2669     2.9792    -5.1625 H             1 Polymer 
     168 H            9.5206     0.9768    -3.6249 H             1 Polymer 
     169 H            8.9963     2.2703    -4.6802 H             1 Polymer 
     170 H           10.4520     2.7101    -1.9889 H             1 Polymer 
     171 H            8.6917     2.8219    -2.2938 H             1 Polymer 
     172 H           10.8399     4.6215    -3.5918 H             1 Polymer 
     173 H            9.0614     4.6871    -3.9157 H             1 Polymer 
     174 H            8.6434     5.2045    -1.5031 H             1 Polymer 
     175 H            9.7451     6.4108    -2.2667 H             1 Polymer 
     176 H           10.4235     5.1380    -1.1810 H             1 Polymer 
     177 H           12.8741    -0.3881    -5.3857 H             1 Polymer 
     178 H           11.4081    -0.9787    -4.5333 H             1 Polymer 
     179 H           14.3644    -1.8986    -4.2859 H             1 Polymer 
     180 H           13.0230    -2.5057    -3.2827 H             1 Polymer 
     181 H           11.7810    -3.2983    -5.2413 H             1 Polymer 
     182 H           13.0775    -2.7204    -6.3555 H             1 Polymer 
     183 H           14.6977    -4.3458    -5.3407 H             1 Polymer 
     184 H           13.4909    -4.7854    -4.1217 H             1 Polymer 
     185 H           11.9112    -5.5685    -5.9955 H             1 Polymer 
     186 H           13.2652    -5.2666    -7.1392 H             1 Polymer 
     187 H           14.6529    -6.9792    -5.8429 H             1 Polymer 
     188 H           13.1507    -7.6346    -6.5939 H             1 Polymer 
     189 H           11.9326    -7.4781    -4.4197 H             1 Polymer 
     190 H           13.4392    -6.9007    -3.6108 H             1 Polymer 
     191 H           13.0984    -9.2956    -3.2266 H             1 Polymer 
     192 H           13.1008    -9.6133    -5.0022 H             1 Polymer 
     193 H           14.6006    -9.0051    -4.1830 H             1 Polymer 
     194 C           11.5492    -2.3747    -0.9709 C             1 Polymer 
     195 C           12.5128    -3.5934    -0.9743 C             1 Polymer 
     196 C           11.9618    -4.7119    -1.9260 C             1 Polymer 
     197 C           10.7027    -5.5406    -1.5679 C             1 Polymer 
     198 C            9.3320    -4.8313    -1.6010 C             1 Polymer 
     199 C            8.9476    -4.1574    -2.9370 C             1 Polymer 
     200 C            8.8948    -5.1154    -4.1320 C             1 Polymer 
     201 C            8.4317    -4.3754    -5.3865 C             1 Polymer 
     202 C           12.7709    -4.2499     0.4122 C             1 Polymer 
     203 C           13.4993    -3.3660     1.4050 C             1 Polymer 
     204 C           13.8361    -4.1031     2.7002 C             1 Polymer 
     205 C           14.6276    -3.1701     3.6197 C             1 Polymer 
     206 C           14.9801    -3.8553     4.9439 C             1 Polymer 
     207 C           15.8484    -2.9713     5.8532 C             1 Polymer 
     208 C           15.1491    -1.6713     6.2813 C             1 Polymer 
     209 C           16.0273    -0.8661     7.2324 C             1 Polymer 
     210 H           10.7743    -2.6891    -0.2449 H             1 Polymer 
     211 H           11.0308    -2.3374    -1.9406 H             1 Polymer 
     212 H           13.4876    -3.2739    -1.3944 H             1 Polymer 
     213 H           12.7828    -5.4533    -2.0064 H             1 Polymer 
     214 H           11.7830    -4.2979    -2.9315 H             1 Polymer 
     215 H           10.8396    -6.0262    -0.5805 H             1 Polymer 
     216 H           10.6496    -6.3689    -2.3067 H             1 Polymer 
     217 H            9.2720    -4.0818    -0.7940 H             1 Polymer 
     218 H            8.5578    -5.5944    -1.3676 H             1 Polymer 
     219 H            9.6414    -3.3356    -3.1838 H             1 Polymer 
     220 H            7.9409    -3.7087    -2.8032 H             1 Polymer 
     221 H            9.9027    -5.5380    -4.3271 H             1 Polymer 
     222 H            8.1867    -5.9447    -3.9193 H             1 Polymer 
     223 H            7.4131    -3.9575    -5.2338 H             1 Polymer 
     224 H            8.4031    -5.0748    -6.2476 H             1 Polymer 
     225 H            9.1298    -3.5443    -5.6264 H             1 Polymer 
     226 H           13.4087    -5.1474     0.2498 H             1 Polymer 
     227 H           11.8132    -4.5803     0.8683 H             1 Polymer 
     228 H           14.4485    -3.0475     0.9400 H             1 Polymer 
     229 H           12.8588    -2.5027     1.6583 H             1 Polymer 
     230 H           12.8962    -4.4262     3.1996 H             1 Polymer 
     231 H           14.4519    -5.0011     2.4718 H             1 Polymer 
     232 H           15.5665    -2.8636     3.1063 H             1 Polymer 
     233 H           14.0108    -2.2680     3.8129 H             1 Polymer 
     234 H           14.0474    -4.1410     5.4777 H             1 Polymer 
     235 H           15.5541    -4.7824     4.7240 H             1 Polymer 
     236 H           16.8002    -2.7287     5.3306 H             1 Polymer 
     237 H           16.0925    -3.5622     6.7630 H             1 Polymer 
     238 H           14.1917    -1.9134     6.7915 H             1 Polymer 
     239 H           14.9364    -1.0346     5.3975 H             1 Polymer 
     240 H           15.4999     0.0666     7.5235 H             1 Polymer 
     241 H           16.2435    -1.4551     8.1488 H             1 Polymer 
     242 H           16.9835    -0.5948     6.7360 H             1 Polymer 
     243 C           24.0213    -1.2801    -0.2733 C             1 Polymer 
     244 C           22.9397    -0.7574     0.6428 C             1 Polymer 
     245 C           23.3562    -0.1648     1.7825 C             1 Polymer 
     246 S           22.0204     0.3691     2.6852 S             1 Polymer 
     247 C           20.8917    -0.2744     1.5557 C             1 Polymer 
     248 C           21.5861    -0.8112     0.4795 C             1 Polymer 
     249 C           24.7944    -0.2420     1.7689 C             1 Polymer 
     250 C           25.1818    -0.9007     0.6268 C             1 Polymer 
     251 C           26.5438    -1.0635     0.5158 C             1 Polymer 
     252 C           27.2332    -0.5385     1.6310 C             1 Polymer 
     253 S           26.1194     0.1907     2.7095 S             1 Polymer 
     254 H           21.1590    -1.2442    -0.4102 H             1 Polymer 
     255 H           26.9868    -1.5489    -0.3399 H             1 Polymer 
     256 N           30.8110     0.2431     2.6472 N             1 Polymer 
     257 C           29.4414     0.3123     2.5715 C             1 Polymer 
     258 C           28.7041    -0.6287     1.8139 C             1 Polymer 
     259 C           29.4174    -1.6884     1.2378 C             1 Polymer 
     260 N           28.8386    -2.7243     0.5732 N             1 Polymer 
     261 S           30.1152    -3.6739     0.1660 S             1 Polymer 
     262 N           31.3963    -2.8483     0.7800 N             1 Polymer 
     263 C           30.8202    -1.7526     1.3468 C             1 Polymer 
     264 C           31.5261    -0.7368     2.0214 C             1 Polymer 
     265 H           28.9323     1.1350     3.0557 H             1 Polymer 
     266 C           23.9036    -0.3359    -1.5386 C             1 Polymer 
     267 C           24.7806    -0.1869    -2.8292 C             1 Polymer 
     268 C           24.5160     1.2324    -3.4613 C             1 Polymer 
     269 C           23.1908     1.5238    -4.2310 C             1 Polymer 
     270 C           21.8464     1.5461    -3.4693 C             1 Polymer 
     271 C           21.7650     2.5187    -2.2776 C             1 Polymer 
     272 C           21.9096     3.9903    -2.6891 C             1 Polymer 
     273 C           21.7409     4.9124    -1.4823 C             1 Polymer 
     274 C           24.5600    -1.2433    -3.9532 C             1 Polymer 
     275 C           25.3399    -2.5424    -3.7938 C             1 Polymer 
     276 C           24.9402    -3.5647    -4.8771 C             1 Polymer 
     277 C           25.6745    -4.9063    -4.7043 C             1 Polymer 
     278 C           25.0860    -5.9841    -5.6346 C             1 Polymer 
     279 C           25.6086    -7.4054    -5.3423 C             1 Polymer 
     280 C           25.1083    -7.9509    -3.9892 C             1 Polymer 
     281 C           25.5555    -9.3890    -3.7511 C             1 Polymer 
     282 H           22.8746    -0.4532    -1.8954 H             1 Polymer 
     283 H           23.9942     0.6693    -1.0712 H             1 Polymer 
     284 H           25.8507    -0.1583    -2.5264 H             1 Polymer 
     285 H           25.3196     1.3824    -4.2173 H             1 Polymer 
     286 H           24.6803     2.0269    -2.7019 H             1 Polymer 
     287 H           23.0916     0.8032    -5.0713 H             1 Polymer 
     288 H           23.3125     2.5236    -4.7012 H             1 Polymer 
     289 H           21.5808     0.5307    -3.1359 H             1 Polymer 
     290 H           21.0481     1.8197    -4.1932 H             1 Polymer 
     291 H           22.5281     2.2688    -1.5166 H             1 Polymer 
     292 H           20.7659     2.3860    -1.8070 H             1 Polymer 
     293 H           22.9101     4.1700    -3.1315 H             1 Polymer 
     294 H           21.1298     4.2432    -3.4400 H             1 Polymer 
     295 H           20.7377     4.7739    -1.0254 H             1 Polymer 
     296 H           21.8391     5.9707    -1.8052 H             1 Polymer 
     297 H           22.5207     4.6987    -0.7203 H             1 Polymer 
     298 H           24.9227    -0.8344    -4.9230 H             1 Polymer 
     299 H           23.4679    -1.4302    -4.0555 H             1 Polymer 
     300 H           26.4314    -2.3355    -3.8357 H             1 Polymer 
     301 H           25.1018    -2.9479    -2.8205 H             1 Polymer 
     302 H           23.8463    -3.7439    -4.7743 H             1 Polymer 
     303 H           25.1355    -3.1625    -5.8950 H             1 Polymer 
     304 H           26.7641    -4.7864    -4.8862 H             1 Polymer 
     305 H           25.5598    -5.2292    -3.6650 H             1 Polymer 
     306 H           23.9777    -6.0101    -5.5392 H             1 Polymer 
     307 H           25.3316    -5.7076    -6.6827 H             1 Polymer 
     308 H           26.7190    -7.4212    -5.3855 H             1 Polymer 
     309 H           25.2178    -8.0758    -6.1388 H             1 Polymer 
     310 H           23.9963    -7.9211    -3.9670 H             1 Polymer 
     311 H           25.5004    -7.3437    -3.1541 H             1 Polymer 
     312 H           25.1597    -9.7394    -2.7731 H             1 Polymer 
     313 H           25.1658   -10.0554    -4.5490 H             1 Polymer 
     314 H           26.6639    -9.4480    -3.7262 H             1 Polymer 
     315 C           23.6303    -2.8060    -0.4837 C             1 Polymer 
     316 C           24.5979    -4.0225    -0.5031 C             1 Polymer 
     317 C           24.0470    -5.1393    -1.4568 C             1 Polymer 
     318 C           22.7923    -5.9728    -1.0966 C             1 Polymer 
     319 C           21.4202    -5.2660    -1.1250 C             1 Polymer 
     320 C           21.0298    -4.5928    -2.4598 C             1 Polymer 
     321 C           20.9785    -5.5505    -3.6557 C             1 Polymer 
     322 C           20.5141    -4.8112    -4.9102 C             1 Polymer 
     323 C           24.8677    -4.6839     0.8791 C             1 Polymer 
     324 C           25.5960    -3.7993     1.8709 C             1 Polymer 
     325 C           25.9393    -4.5376     3.1636 C             1 Polymer 
     326 C           26.7271    -3.6019     4.0836 C             1 Polymer 
     327 C           27.0840    -4.2865     5.4067 C             1 Polymer 
     328 C           27.9466    -3.3973     6.3171 C             1 Polymer 
     329 C           27.2382    -2.1027     6.7466 C             1 Polymer 
     330 C           28.1114    -1.2913     7.6971 C             1 Polymer 
     331 H           22.8653    -3.1188     0.2544 H             1 Polymer 
     332 H           23.0967    -2.7713    -1.4453 H             1 Polymer 
     333 H           25.5687    -3.6965    -0.9269 H             1 Polymer 
     334 H           24.8703    -5.8778    -1.5438 H             1 Polymer 
     335 H           23.8624    -4.7231    -2.4601 H             1 Polymer 
     336 H           22.9335    -6.4598    -0.1105 H             1 Polymer 
     337 H           22.7393    -6.8004    -1.8365 H             1 Polymer 
     338 H           21.3629    -4.5159    -0.3182 H             1 Polymer 
     339 H           20.6484    -6.0309    -0.8893 H             1 Polymer 
     340 H           21.7211    -3.7691    -2.7079 H             1 Polymer 
     341 H           20.0215    -4.1469    -2.3222 H             1 Polymer 
     342 H           21.9871    -5.9708    -3.8519 H             1 Polymer 
     343 H           20.2725    -6.3817    -3.4435 H             1 Polymer 
     344 H           19.4949    -4.3951    -4.7577 H             1 Polymer 
     345 H           20.4871    -5.5105    -5.7715 H             1 Polymer 
     346 H           21.2110    -3.9790    -5.1500 H             1 Polymer 
     347 H           25.5093    -5.5779     0.7095 H             1 Polymer 
     348 H           23.9141    -5.0210     1.3386 H             1 Polymer 
     349 H           26.5426    -3.4763     1.4038 H             1 Polymer 
     350 H           24.9533    -2.9379     2.1271 H             1 Polymer 
     351 H           25.0019    -4.8664     3.6640 H             1 Polymer 
     352 H           26.5592    -5.4321     2.9321 H             1 Polymer 
     353 H           27.6639    -3.2900     3.5696 H             1 Polymer 
     354 H           26.1056    -2.7034     4.2780 H             1 Polymer 
     355 H           26.1533    -4.5787     5.9405 H             1 Polymer 
     356 H           27.6638    -5.2097     5.1859 H             1 Polymer 
     357 H           28.8964    -3.1476     5.7944 H             1 Polymer 
     358 H           28.1951    -3.9873     7.2262 H             1 Polymer 
     359 H           26.2830    -2.3520     7.2574 H             1 Polymer 
     360 H           27.0202    -1.4667     5.8636 H             1 Polymer 
     361 H           27.5771    -0.3625     7.9888 H             1 Polymer 
     362 H           28.3330    -1.8788     8.6129 H             1 Polymer 
     363 H           29.0648    -1.0126     7.1995 H             1 Polymer 
     364 C           36.1235    -1.7531     0.1204 C             1 Polymer 
     365 C           35.0535    -1.2257     1.0510 C             1 Polymer 
     366 C           35.4888    -0.6265     2.1766 C             1 Polymer 
     367 S           34.1634    -0.0807     3.0925 S             1 Polymer 
     368 C           33.0123    -0.7262     1.9852 C             1 Polymer 
     369 C           33.6955    -1.2734     0.9058 C             1 Polymer 
     370 C           36.9286    -0.7140     2.1342 C             1 Polymer 
     371 C           37.3078    -1.3875     0.9973 C             1 Polymer 
     372 C           38.6817    -1.5766     0.8861 C             1 Polymer 
     373 C           39.3702    -1.0343     1.9872 C             1 Polymer 
     374 S           38.2558    -0.2873     3.0565 S             1 Polymer 
     375 H           33.2566    -1.7091     0.0236 H             1 Polymer 
     376 H           39.1337    -2.0923     0.0496 H             1 Polymer 
     377 N           42.8100    -0.2395     3.3156 N             1 Polymer 
     378 C           41.4708    -0.1681     3.0594 C             1 Polymer 
     379 C           40.8335    -1.1236     2.2404 C             1 Polymer 
     380 C           41.6333    -2.1641     1.7251 C             1 Polymer 
     381 N           41.1691    -3.1894     0.9647 N             1 Polymer 
     382 S           42.5267    -4.0983     0.7147 S             1 Polymer 
     383 N           43.7070    -3.2714     1.5213 N             1 Polymer 
     384 C           43.0201    -2.2188     2.0303 C             1 Polymer 
     385 C           43.5953    -1.2350     2.8238 C             1 Polymer 
     386 H           40.9084     0.6534     3.4828 H             1 Polymer 
     387 C           35.9836    -0.7940    -1.1297 C             1 Polymer 
     388 C           36.8547    -0.6342    -2.4182 C             1 Polymer 
     389 C           36.5832     0.7867    -3.0434 C             1 Polymer 
     390 C           35.2541     1.0805    -3.8053 C             1 Polymer 
     391 C           33.9124     1.1016    -3.0339 C             1 Polymer 
     392 C           33.8357     2.0721    -1.8423 C             1 Polymer 
     393 C           33.9743     3.5458    -2.2496 C             1 Polymer 
     394 C           33.8032     4.4662    -1.0426 C             1 Polymer 
     395 C           36.6344    -1.6925    -3.5373 C             1 Polymer 
     396 C           37.4072    -2.9943    -3.3609 C             1 Polymer 
     397 C           37.0055    -4.0240    -4.4338 C             1 Polymer 
     398 C           37.7400    -5.3634    -4.2500 C             1 Polymer 
     399 C           37.1463    -6.4472    -5.1690 C             1 Polymer 
     400 C           37.6714    -7.8663    -4.8724 C             1 Polymer 
     401 C           37.1836    -8.4027    -3.5117 C             1 Polymer 
     402 C           37.6291    -9.8404    -3.2696 C             1 Polymer 
     403 H           34.9518    -0.9109    -1.4799 H             1 Polymer 
     404 H           36.0747     0.2089    -0.6562 H             1 Polymer 
     405 H           37.9254    -0.6033    -2.1171 H             1 Polymer 
     406 H           37.3820     0.9410    -3.8036 H             1 Polymer 
     407 H           36.7496     1.5785    -2.2820 H             1 Polymer 
     408 H           35.1500     0.3624    -4.6447 H             1 Polymer 
     409 H           35.3723     2.0814    -4.2708 H             1 Polymer 
     410 H           33.6485     0.0860    -2.7004 H             1 Polymer 
     411 H           33.1103     1.3761    -3.7539 H             1 Polymer 
     412 H           34.6011     1.8220    -1.0827 H             1 Polymer 
     413 H           32.8369     1.9378    -1.3674 H             1 Polymer 
     414 H           34.9744     3.7289    -2.6942 H             1 Polymer 
     415 H           33.1932     3.7974    -3.0002 H             1 Polymer 
     416 H           32.8001     4.3241    -0.5861 H             1 Polymer 
     417 H           33.8979     5.5248    -1.3638 H             1 Polymer 
     418 H           34.5829     4.2536    -0.2804 H             1 Polymer 
     419 H           37.0024    -1.2889    -4.5072 H             1 Polymer 
     420 H           35.5417    -1.8752    -3.6420 H             1 Polymer 
     421 H           38.4995    -2.7918    -3.4009 H             1 Polymer 
     422 H           37.1656    -3.3949    -2.3851 H             1 Polymer 
     423 H           35.9113    -4.2005    -4.3270 H             1 Polymer 
     424 H           37.1999    -3.6304    -5.4551 H             1 Polymer 
     425 H           38.8287    -5.2448    -4.4375 H             1 Polymer 
     426 H           37.6311    -5.6769    -3.2068 H             1 Polymer 
     427 H           36.0386    -6.4728    -5.0654 H             1 Polymer 
     428 H           37.3844    -6.1769    -6.2203 H             1 Polymer 
     429 H           38.7814    -7.8824    -4.9252 H             1 Polymer 
     430 H           37.2731    -8.5411    -5.6613 H             1 Polymer 
     431 H           36.0719    -8.3693    -3.4775 H             1 Polymer 
     432 H           37.5880    -7.7920    -2.6857 H             1 Polymer 
     433 H           37.2423   -10.1837    -2.2855 H             1 Polymer 
     434 H           37.2291   -10.5102    -4.0595 H             1 Polymer 
     435 H           38.7375    -9.9023    -3.2558 H             1 Polymer 
     436 C           35.7198    -3.2714    -0.0949 C             1 Polymer 
     437 C           36.6718    -4.4982    -0.0733 C             1 Polymer 
     438 C           36.1050    -5.6245    -1.0049 C             1 Polymer 
     439 C           34.8454    -6.4436    -0.6255 C             1 Polymer 
     440 C           33.4741    -5.7343    -0.6485 C             1 Polymer 
     441 C           33.0776    -5.0608    -1.9810 C             1 Polymer 
     442 C           33.0301    -6.0155    -3.1790 C             1 Polymer 
     443 C           32.5609    -5.2750    -4.4311 C             1 Polymer 
     444 C           36.9296    -5.1336     1.3238 C             1 Polymer 
     445 C           37.6867    -4.2521     2.2996 C             1 Polymer 
     446 C           38.0106    -4.9811     3.6033 C             1 Polymer 
     447 C           38.8097    -4.0521     4.5211 C             1 Polymer 
     448 C           39.1547    -4.7393     5.8467 C             1 Polymer 
     449 C           40.0189    -3.8584     6.7634 C             1 Polymer 
     450 C           39.3129    -2.5647     7.1995 C             1 Polymer 
     451 C           40.1849    -1.7627     8.1591 C             1 Polymer 
     452 H           34.9234    -3.5707     0.6120 H             1 Polymer 
     453 H           35.2245    -3.2334    -1.0764 H             1 Polymer 
     454 H           37.6475    -4.1971    -0.5050 H             1 Polymer 
     455 H           36.9210    -6.3712    -1.0819 H             1 Polymer 
     456 H           35.9218    -5.2204    -2.0143 H             1 Polymer 
     457 H           34.9916    -6.9216     0.3644 H             1 Polymer 
     458 H           34.7824    -7.2774    -1.3573 H             1 Polymer 
     459 H           33.4178    -4.9857     0.1596 H             1 Polymer 
     460 H           32.7029    -6.4989    -0.4095 H             1 Polymer 
     461 H           33.7637    -4.2332    -2.2271 H             1 Polymer 
     462 H           32.0676    -4.6201    -1.8416 H             1 Polymer 
     463 H           34.0410    -6.4296    -3.3769 H             1 Polymer 
     464 H           32.3290    -6.8511    -2.9683 H             1 Polymer 
     465 H           31.5391    -4.8657    -4.2770 H             1 Polymer 
     466 H           32.5381    -5.9718    -5.2946 H             1 Polymer 
     467 H           33.2526    -4.4378    -4.6684 H             1 Polymer 
     468 H           37.5483    -6.0462     1.1711 H             1 Polymer 
     469 H           35.9684    -5.4382     1.7904 H             1 Polymer 
     470 H           38.6449    -3.9597     1.8278 H             1 Polymer 
     471 H           37.0647    -3.3737     2.5463 H             1 Polymer 
     472 H           37.0655    -5.2876     4.1035 H             1 Polymer 
     473 H           38.6142    -5.8894     3.3833 H             1 Polymer 
     474 H           39.7518    -3.7540     4.0087 H             1 Polymer 
     475 H           38.1997    -3.1448     4.7109 H             1 Polymer 
     476 H           38.2198    -5.0254     6.3764 H             1 Polymer 
     477 H           39.7286    -5.6666     5.6275 H             1 Polymer 
     478 H           40.9712    -3.6094     6.2450 H             1 Polymer 
     479 H           40.2624    -4.4543     7.6700 H             1 Polymer 
     480 H           38.3558    -2.8154     7.7062 H             1 Polymer 
     481 H           39.0985    -1.9226     6.3202 H             1 Polymer 
     482 H           39.6517    -0.8353     8.4568 H             1 Polymer 
     483 H           40.4022    -2.3579     9.0713 H             1 Polymer 
     484 H           41.1406    -1.4823     7.6671 H             1 Polymer 
     485 H           -4.2471     1.1159     1.1320 H             1 Polymer 
     486 H           44.6510    -1.2630     3.0622 H             1 Polymer 
@<TRIPOS>BOND
       1        2        1 1
       2        8        1 1
       3       24        1 1
       4       73        1 1
       5        3        2 1
       6        6        2 1
       7        4        3 1
       8        7        3 1
       9        5        4 1
      10        6        5 1
      11      485        5 1
      12       12        6 1
      13        8        7 1
      14       11        7 1
      15        9        8 1
      16       10        9 1
      17       13        9 1
      18       11       10 1
      19       16       10 1
      20       15       14 1
      21       22       14 1
      22       16       15 1
      23       23       15 1
      24       17       16 1
      25       18       17 1
      26       21       17 1
      27       19       18 1
      28       20       19 1
      29       21       20 1
      30       22       21 1
      31      126       22 1
      32       25       24 1
      33       40       24 1
      34       41       24 1
      35       26       25 1
      36       32       25 1
      37       42       25 1
      38       27       26 1
      39       43       26 1
      40       44       26 1
      41       28       27 1
      42       45       27 1
      43       46       27 1
      44       29       28 1
      45       47       28 1
      46       48       28 1
      47       30       29 1
      48       49       29 1
      49       50       29 1
      50       31       30 1
      51       51       30 1
      52       52       30 1
      53       53       31 1
      54       54       31 1
      55       55       31 1
      56       33       32 1
      57       56       32 1
      58       57       32 1
      59       34       33 1
      60       58       33 1
      61       59       33 1
      62       35       34 1
      63       60       34 1
      64       61       34 1
      65       36       35 1
      66       62       35 1
      67       63       35 1
      68       37       36 1
      69       64       36 1
      70       65       36 1
      71       38       37 1
      72       66       37 1
      73       67       37 1
      74       39       38 1
      75       68       38 1
      76       69       38 1
      77       70       39 1
      78       71       39 1
      79       72       39 1
      80       74       73 1
      81       89       73 1
      82       90       73 1
      83       75       74 1
      84       81       74 1
      85       91       74 1
      86       76       75 1
      87       92       75 1
      88       93       75 1
      89       77       76 1
      90       94       76 1
      91       95       76 1
      92       78       77 1
      93       96       77 1
      94       97       77 1
      95       79       78 1
      96       98       78 1
      97       99       78 1
      98       80       79 1
      99      100       79 1
     100      101       79 1
     101      102       80 1
     102      103       80 1
     103      104       80 1
     104       82       81 1
     105      105       81 1
     106      106       81 1
     107       83       82 1
     108      107       82 1
     109      108       82 1
     110       84       83 1
     111      109       83 1
     112      110       83 1
     113       85       84 1
     114      111       84 1
     115      112       84 1
     116       86       85 1
     117      113       85 1
     118      114       85 1
     119       87       86 1
     120      115       86 1
     121      116       86 1
     122       88       87 1
     123      117       87 1
     124      118       87 1
     125      119       88 1
     126      120       88 1
     127      121       88 1
     128      123      122 1
     129      129      122 1
     130      145      122 1
     131      194      122 1
     132      124      123 1
     133      127      123 1
     134      125      124 1
     135      128      124 1
     136      126      125 1
     137      127      126 1
     138      133      127 1
     139      129      128 1
     140      132      128 1
     141      130      129 1
     142      131      130 1
     143      134      130 1
     144      132      131 1
     145      137      131 1
     146      136      135 1
     147      143      135 1
     148      137      136 1
     149      144      136 1
     150      138      137 1
     151      139      138 1
     152      142      138 1
     153      140      139 1
     154      141      140 1
     155      142      141 1
     156      143      142 1
     157      247      143 1
     158      146      145 1
     159      161      145 1
     160      162      145 1
     161      147      146 1
     162      153      146 1
     163      163      146 1
     164      148      147 1
     165      164      147 1
     166      165      147 1
     167      149      148 1
     168      166      148 1
     169      167      148 1
     170      150      149 1
     171      168      149 1
     172      169      149 1
     173      151      150 1
     174      170      150 1
     175      171      150 1
     176      152      151 1
     177      172      151 1
     178      173      151 1
     179      174      152 1
     180      175      152 1
     181      176      152 1
     182      154      153 1
     183      177      153 1
     184      178      153 1
     185      155      154 1
     186      179      154 1
     187      180      154 1
     188      156      155 1
     189      181      155 1
     190      182      155 1
     191      157      156 1
     192      183      156 1
     193      184      156 1
     194      158      157 1
     195      185      157 1
     196      186      157 1
     197      159      158 1
     198      187      158 1
     199      188      158 1
     200      160      159 1
     201      189      159 1
     202      190      159 1
     203      191      160 1
     204      192      160 1
     205      193      160 1
     206      195      194 1
     207      210      194 1
     208      211      194 1
     209      196      195 1
     210      202      195 1
     211      212      195 1
     212      197      196 1
     213      213      196 1
     214      214      196 1
     215      198      197 1
     216      215      197 1
     217      216      197 1
     218      199      198 1
     219      217      198 1
     220      218      198 1
     221      200      199 1
     222      219      199 1
     223      220      199 1
     224      201      200 1
     225      221      200 1
     226      222      200 1
     227      223      201 1
     228      224      201 1
     229      225      201 1
     230      203      202 1
     231      226      202 1
     232      227      202 1
     233      204      203 1
     234      228      203 1
     235      229      203 1
     236      205      204 1
     237      230      204 1
     238      231      204 1
     239      206      205 1
     240      232      205 1
     241      233      205 1
     242      207      206 1
     243      234      206 1
     244      235      206 1
     245      208      207 1
     246      236      207 1
     247      237      207 1
     248      209      208 1
     249      238      208 1
     250      239      208 1
     251      240      209 1
     252      241      209 1
     253      242      209 1
     254      244      243 1
     255      250      243 1
     256      266      243 1
     257      315      243 1
     258      245      244 1
     259      248      244 1
     260      246      245 1
     261      249      245 1
     262      247      246 1
     263      248      247 1
     264      254      248 1
     265      250      249 1
     266      253      249 1
     267      251      250 1
     268      252      251 1
     269      255      251 1
     270      253      252 1
     271      258      252 1
     272      257      256 1
     273      264      256 1
     274      258      257 1
     275      265      257 1
     276      259      258 1
     277      260      259 1
     278      263      259 1
     279      261      260 1
     280      262      261 1
     281      263      262 1
     282      264      263 1
     283      368      264 1
     284      267      266 1
     285      282      266 1
     286      283      266 1
     287      268      267 1
     288      274      267 1
     289      284      267 1
     290      269      268 1
     291      285      268 1
     292      286      268 1
     293      270      269 1
     294      287      269 1
     295      288      269 1
     296      271      270 1
     297      289      270 1
     298      290      270 1
     299      272      271 1
     300      291      271 1
     301      292      271 1
     302      273      272 1
     303      293      272 1
     304      294      272 1
     305      295      273 1
     306      296      273 1
     307      297      273 1
     308      275      274 1
     309      298      274 1
     310      299      274 1
     311      276      275 1
     312      300      275 1
     313      301      275 1
     314      277      276 1
     315      302      276 1
     316      303      276 1
     317      278      277 1
     318      304      277 1
     319      305      277 1
     320      279      278 1
     321      306      278 1
     322      307      278 1
     323      280      279 1
     324      308      279 1
     325      309      279 1
     326      281      280 1
     327      310      280 1
     328      311      280 1
     329      312      281 1
     330      313      281 1
     331      314      281 1
     332      316      315 1
     333      331      315 1
     334      332      315 1
     335      317      316 1
     336      323      316 1
     337      333      316 1
     338      318      317 1
     339      334      317 1
     340      335      317 1
     341      319      318 1
     342      336      318 1
     343      337      318 1
     344      320      319 1
     345      338      319 1
     346      339      319 1
     347      321      320 1
     348      340      320 1
     349      341      320 1
     350      322      321 1
     351      342      321 1
     352      343      321 1
     353      344      322 1
     354      345      322 1
     355      346      322 1
     356      324      323 1
     357      347      323 1
     358      348      323 1
     359      325      324 1
     360      349      324 1
     361      350      324 1
     362      326      325 1
     363      351      325 1
     364      352      325 1
     365      327      326 1
     366      353      326 1
     367      354      326 1
     368      328      327 1
     369      355      327 1
     370      356      327 1
     371      329      328 1
     372      357      328 1
     373      358      328 1
     374      330      329 1
     375      359      329 1
     376      360      329 1
     377      361      330 1
     378      362      330 1
     379      363      330 1
     380      365      364 1
     381      371      364 1
     382      387      364 1
     383      436      364 1
     384      366      365 1
     385      369      365 1
     386      367      366 1
     387      370      366 1
     388      368      367 1
     389      369      368 1
     390      375      369 1
     391      371      370 1
     392      374      370 1
     393      372      371 1
     394      373      372 1
     395      376      372 1
     396      374      373 1
     397      379      373 1
     398      378      377 1
     399      385      377 1
     400      379      378 1
     401      386      378 1
     402      380      379 1
     403      381      380 1
     404      384      380 1
     405      382      381 1
     406      383      382 1
     407      384      383 1
     408      385      384 1
     409      486      385 1
     410      388      387 1
     411      403      387 1
     412      404      387 1
     413      389      388 1
     414      395      388 1
     415      405      388 1
     416      390      389 1
     417      406      389 1
     418      407      389 1
     419      391      390 1
     420      408      390 1
     421      409      390 1
     422      392      391 1
     423      410      391 1
     424      411      391 1
     425      393      392 1
     426      412      392 1
     427      413      392 1
     428      394      393 1
     429      414      393 1
     430      415      393 1
     431      416      394 1
     432      417      394 1
     433      418      394 1
     434      396      395 1
     435      419      395 1
     436      420      395 1
     437      397      396 1
     438      421      396 1
     439      422      396 1
     440      398      397 1
     441      423      397 1
     442      424      397 1
     443      399      398 1
     444      425      398 1
     445      426      398 1
     446      400      399 1
     447      427      399 1
     448      428      399 1
     449      401      400 1
     450      429      400 1
     451      430      400 1
     452      402      401 1
     453      431      401 1
     454      432      401 1
     455      433      402 1
     456      434      402 1
     457      435      402 1
     458      437      436 1
     459      452      436 1
     460      453      436 1
     461      438      437 1
     462      444      437 1
     463      454      437 1
     464      439      438 1
     465      455      438 1
     466      456      438 1
     467      440      439 1
     468      457      439 1
     469      458      439 1
     470      441      440 1
     471      459      440 1
     472      460      440 1
     473      442      441 1
     474      461      441 1
     475      462      441 1
     476      443      442 1
     477      463      442 1
     478      464      442 1
     479      465      443 1
     480      466      443 1
     481      467      443 1
     482      445      444 1
     483      468      444 1
     484      469      444 1
     485      446      445 1
     486      470      445 1
     487      471      445 1
     488      447      446 1
     489      472      446 1
     490      473      446 1
     491      448      447 1
     492      474      447 1
     493      475      447 1
     494      449      448 1
     495      476      448 1
     496      477      448 1
     497      450      449 1
     498      478      449 1
     499      479      449 1
     500      451      450 1
     501      480      450 1
     502      481      450 1
     503      482      451 1
     504      483      451 1
     505      484      451 1
@<TRIPOS>SUBSTRUCTURE
       1 Polymer         1 RESIDUE    0 **** ROOT      0
