@<TRIPOS>MOLECULE
RES
234 243 1 0 1
SMALL
NO_CHARGES
@<TRIPOS>CRYSIN
   34.6650    20.7880    16.1150    90.0000    90.0000    90.0000  1  1
@<TRIPOS>ATOM
       1 C           -9.9040    -0.8110     0.5350 C             1 RES     
       2 C          -10.8130     0.4180     0.7560 C             1 RES     
       3 C          -10.6250     0.8170     2.2290 C             1 RES     
       4 S          -10.9380     2.6010     2.4420 S             1 RES     
       5 C          -10.5430     2.8240     0.7230 C             1 RES     
       6 C          -10.4960     1.6680    -0.0140 C             1 RES     
       7 C           -9.2140     0.3740     2.6300 C             1 RES     
       8 C           -8.6920    -0.2830     1.4050 C             1 RES     
       9 C           -7.3180    -0.7190     1.8230 C             1 RES     
      10 C           -6.5830     0.3520     2.6720 C             1 RES     
      11 S           -7.8960     1.6110     3.0130 S             1 RES     
      12 H          -10.4730     3.8020     0.2680 H             1 RES     
      13 H          -10.4210     1.7170    -1.0860 H             1 RES     
      14 H           -6.9670    -1.7290     1.6720 H             1 RES     
      15 C            1.4080     0.0990    -1.0180 C             1 RES     
      16 C            0.8170     1.6290    -0.8800 C             1 RES     
      17 C            1.5500     2.3300     0.2630 C             1 RES     
      18 S            0.6110     2.1750     1.8500 S             1 RES     
      19 C           -0.9440     2.3860     0.9230 C             1 RES     
      20 C           -0.6190     2.0330    -0.5230 C             1 RES     
      21 C            2.9190     1.7310     0.2040 C             1 RES     
      22 C            2.8730     0.5490    -0.6970 C             1 RES     
      23 C            4.1830    -0.1480    -0.5490 C             1 RES     
      24 C            5.0310     0.4700     0.5490 C             1 RES     
      25 S            3.8590     1.3010     1.6890 S             1 RES     
      26 H           -1.1710     2.5620    -1.2830 H             1 RES     
      27 H            4.6220    -0.7190    -1.3570 H             1 RES     
      28 C            8.4880     1.6530    -0.8290 C             1 RES     
      29 N            9.5560     0.8730    -1.4100 N             1 RES     
      30 S            9.4830    -0.6910    -0.5720 S             1 RES     
      31 N            7.8450    -0.4180     0.0710 N             1 RES     
      32 C            7.3200     0.7180    -0.6560 C             1 RES     
      33 C            6.1940     1.4340     0.1100 C             1 RES     
      34 C            5.7920     2.7220    -0.6730 C             1 RES     
      35 F            4.9270     3.5090     0.0620 F             1 RES     
      36 C            7.0110     3.6070    -0.9820 C             1 RES     
      37 C            8.1110     2.8350    -1.6990 C             1 RES     
      38 H            6.7100     4.4920    -1.5860 H             1 RES     
      39 H            8.9920     3.5020    -1.8270 H             1 RES     
      40 C           -4.8310     2.3950     1.9970 C             1 RES     
      41 N           -5.8780     3.1680     1.3710 N             1 RES     
      42 S           -5.1120     4.6880     0.8610 S             1 RES     
      43 N           -3.4550     4.0580     1.0020 N             1 RES     
      44 C           -3.5890     2.6240     1.1180 C             1 RES     
      45 C           -2.3040     1.9760     1.6780 C             1 RES     
      46 C           -2.5930     0.4740     1.9190 C             1 RES     
      47 F           -1.5420    -0.0980     2.6120 F             1 RES     
      48 C           -3.9250     0.1980     2.7030 C             1 RES     
      49 C           -5.1770     0.8930     2.0910 C             1 RES     
      50 H           -4.0800    -0.9000     2.7740 H             1 RES     
      51 C          -18.4960    -6.0700     1.5220 C             1 RES     
      52 C          -19.1780    -4.7970     1.0070 C             1 RES     
      53 C          -18.3140    -3.9370     0.0520 C             1 RES     
      54 C          -16.9880    -3.5260     0.7090 C             1 RES     
      55 C          -16.0950    -2.4730    -0.0370 C             1 RES     
      56 C          -14.7000    -2.4800     0.8350 C             1 RES     
      57 C          -13.2030    -2.3490     0.2700 C             1 RES     
      58 C          -12.1260    -2.3150     1.4070 C             1 RES     
      59 C          -10.5670    -2.1510     1.1180 C             1 RES     
      60 C          -16.9220    -1.0580    -0.1490 C             1 RES     
      61 C          -17.8770    -0.5360    -1.3460 C             1 RES     
      62 C          -17.9490     1.0470    -1.6000 C             1 RES     
      63 C          -17.1500     1.8840    -2.6910 C             1 RES     
      64 C          -17.6980     2.0380    -4.1250 C             1 RES     
      65 C          -16.7460     2.9320    -4.9570 C             1 RES     
      66 H          -19.2010    -6.6300     2.1730 H             1 RES     
      67 H          -17.6080    -5.8290     2.1440 H             1 RES     
      68 H          -18.1920    -6.7240     0.6780 H             1 RES     
      69 H          -20.1090    -5.0870     0.4760 H             1 RES     
      70 H          -19.4640    -4.1830     1.8900 H             1 RES     
      71 H          -18.1000    -4.4950    -0.8860 H             1 RES     
      72 H          -18.9170    -3.0430    -0.2040 H             1 RES     
      73 H          -16.4180    -4.4730     0.8180 H             1 RES     
      74 H          -17.1980    -3.1330     1.7310 H             1 RES     
      75 H          -15.8880    -2.8970    -1.0430 H             1 RES     
      76 H          -14.5960    -3.4910     1.2800 H             1 RES     
      77 H          -14.8510    -1.8160     1.7100 H             1 RES     
      78 H          -12.9980    -3.1780    -0.4430 H             1 RES     
      79 H          -13.0040    -1.4430    -0.2430 H             1 RES     
      80 H          -12.4070    -1.5040     2.1090 H             1 RES     
      81 H          -12.2370    -3.2770     1.9510 H             1 RES     
      82 H          -10.1930    -3.0320     0.5500 H             1 RES     
      83 H          -10.1240    -2.2790     2.1270 H             1 RES     
      84 H          -17.6990    -1.2300     0.6260 H             1 RES     
      85 H          -16.7270    -0.2830     0.5910 H             1 RES     
      86 H          -18.9060    -0.7440    -0.9750 H             1 RES     
      87 H          -17.8880    -1.1440    -2.2570 H             1 RES     
      88 H          -19.0050     1.3300    -1.7880 H             1 RES     
      89 H          -17.7020     1.4980    -0.6180 H             1 RES     
      90 H          -16.1230     1.5880    -2.8260 H             1 RES     
      91 H          -17.1190     2.9300    -2.3030 H             1 RES     
      92 H          -17.7920     1.0780    -4.6500 H             1 RES     
      93 H          -18.6990     2.5070    -4.1030 H             1 RES     
      94 H          -15.7200     2.4990    -5.0020 H             1 RES     
      95 H          -16.6670     3.9500    -4.5150 H             1 RES     
      96 H          -17.1120     3.0370    -6.0010 H             1 RES     
      97 C          -17.1540    -1.6180    -6.5800 C             1 RES     
      98 C          -16.9590    -2.3600    -5.2560 C             1 RES     
      99 C          -16.1950    -1.5220    -4.2080 C             1 RES     
     100 C          -14.7030    -1.3070    -4.4870 C             1 RES     
     101 C          -13.9020    -0.3360    -3.5140 C             1 RES     
     102 C          -12.4780    -0.9730    -3.4460 C             1 RES     
     103 C          -11.4690    -0.3880    -2.4550 C             1 RES     
     104 C          -10.4150    -1.4370    -2.0820 C             1 RES     
     105 C           -9.4420    -1.0230    -0.9600 C             1 RES     
     106 C          -14.4820    -0.2090    -2.0680 C             1 RES     
     107 C          -14.0870     1.0750    -1.1830 C             1 RES     
     108 C          -14.0990     0.8380     0.3490 C             1 RES     
     109 C          -14.2870     2.0150     1.3130 C             1 RES     
     110 C          -15.7230     2.5560     1.3350 C             1 RES     
     111 C          -15.9330     3.5080     2.5110 C             1 RES     
     112 H          -17.7470    -2.2530    -7.2730 H             1 RES     
     113 H          -16.1840    -1.3850    -7.0610 H             1 RES     
     114 H          -17.7170    -0.6760    -6.4080 H             1 RES     
     115 H          -17.9690    -2.5800    -4.8540 H             1 RES     
     116 H          -16.4380    -3.3260    -5.4300 H             1 RES     
     117 H          -16.6980    -0.5650    -4.0900 H             1 RES     
     118 H          -16.2490    -2.0900    -3.2570 H             1 RES     
     119 H          -14.5290    -0.9510    -5.5220 H             1 RES     
     120 H          -14.3110    -2.3480    -4.4460 H             1 RES     
     121 H          -13.9350     0.6870    -3.9470 H             1 RES     
     122 H          -12.0230    -1.0480    -4.4570 H             1 RES     
     123 H          -12.6600    -2.0160    -3.0910 H             1 RES     
     124 H          -11.0420     0.5510    -2.8630 H             1 RES     
     125 H          -11.9460    -0.1940    -1.5100 H             1 RES     
     126 H          -10.9090    -2.3780    -1.7600 H             1 RES     
     127 H           -9.8320    -1.6590    -3.0050 H             1 RES     
     128 H           -8.9120    -0.1210    -1.3180 H             1 RES     
     129 H           -8.7450    -1.8770    -0.9200 H             1 RES     
     130 H          -15.5540    -0.2040    -2.1000 H             1 RES     
     131 H          -14.3490    -1.1870    -1.6350 H             1 RES     
     132 H          -14.7740     1.9040    -1.3780 H             1 RES     
     133 H          -13.1120     1.5230    -1.4430 H             1 RES     
     134 H          -14.8210     0.1090     0.6230 H             1 RES     
     135 H          -13.1680     0.3800     0.6350 H             1 RES     
     136 H          -13.5520     2.8200     1.1130 H             1 RES     
     137 H          -14.0870     1.6050     2.3320 H             1 RES     
     138 H          -15.9530     3.0670     0.3780 H             1 RES     
     139 H          -16.4390     1.7230     1.4830 H             1 RES     
     140 H          -15.2390     4.3700     2.4490 H             1 RES     
     141 H          -15.7610     2.9690     3.4700 H             1 RES     
     142 H          -16.9800     3.8760     2.5100 H             1 RES     
     143 C           -5.2570    -2.0580    -6.8060 C             1 RES     
     144 C           -5.7650    -0.7290    -6.2320 C             1 RES     
     145 C           -4.6590     0.2100    -5.6860 C             1 RES     
     146 C           -3.8430    -0.5160    -4.6270 C             1 RES     
     147 C           -2.8930     0.2590    -3.6570 C             1 RES     
     148 C           -2.4800    -0.8220    -2.6110 C             1 RES     
     149 C           -1.5040    -0.3920    -1.4660 C             1 RES     
     150 C           -0.7350    -1.2740    -0.3600 C             1 RES     
     151 C            0.6800    -0.7520     0.0680 C             1 RES     
     152 C           -3.5550     1.4560    -2.9560 C             1 RES     
     153 C           -3.4580     2.8170    -3.6450 C             1 RES     
     154 C           -3.9250     3.8880    -2.6340 C             1 RES     
     155 C           -3.8850     5.3210    -3.1460 C             1 RES     
     156 C           -4.9290     5.5680    -4.2400 C             1 RES     
     157 C           -4.9670     7.0410    -4.6250 C             1 RES     
     158 H           -6.1200    -2.6550    -7.1680 H             1 RES     
     159 H           -4.7540    -2.6740    -6.0280 H             1 RES     
     160 H           -4.5570    -1.8770    -7.6450 H             1 RES     
     161 H           -6.3400    -0.1900    -7.0110 H             1 RES     
     162 H           -6.4690    -0.9750    -5.4040 H             1 RES     
     163 H           -3.9910     0.5840    -6.4890 H             1 RES     
     164 H           -5.1990     1.0600    -5.2250 H             1 RES     
     165 H           -3.2460    -1.3070    -5.1320 H             1 RES     
     166 H           -4.5890    -1.0360    -4.0070 H             1 RES     
     167 H           -1.9740     0.6140    -4.1760 H             1 RES     
     168 H           -2.0870    -1.5740    -3.2770 H             1 RES     
     169 H           -3.3580    -1.2450    -2.1900 H             1 RES     
     170 H           -0.7940     0.1310    -2.0880 H             1 RES     
     171 H           -2.0750     0.2840    -0.8390 H             1 RES     
     172 H           -1.3870    -1.4990     0.5060 H             1 RES     
     173 H           -0.4690    -2.3090    -0.5790 H             1 RES     
     174 H            1.3220    -1.6170     0.3560 H             1 RES     
     175 H            0.5870    -0.2010     1.0050 H             1 RES     
     176 H           -4.5970     1.2090    -2.7670 H             1 RES     
     177 H           -3.0520     1.6270    -2.0020 H             1 RES     
     178 H           -4.0620     2.8310    -4.5710 H             1 RES     
     179 H           -2.3970     3.0310    -3.9080 H             1 RES     
     180 H           -4.9520     3.6590    -2.2780 H             1 RES     
     181 H           -3.2450     3.8500    -1.7540 H             1 RES     
     182 H           -2.8620     5.5740    -3.5110 H             1 RES     
     183 H           -4.1180     5.9850    -2.2850 H             1 RES     
     184 H           -4.6960     4.9610    -5.1390 H             1 RES     
     185 H           -5.9320     5.2790    -3.8580 H             1 RES     
     186 H           -3.9820     7.3610    -5.0210 H             1 RES     
     187 H           -5.2260     7.6590    -3.7380 H             1 RES     
     188 H           -5.7410     7.1970    -5.4040 H             1 RES     
     189 C           -5.3040    -7.0990    -5.1830 C             1 RES     
     190 C           -5.0810    -7.1760    -3.6740 C             1 RES     
     191 C           -4.3210    -5.9740    -3.1210 C             1 RES     
     192 C           -2.8040    -5.8310    -3.3380 C             1 RES     
     193 C           -2.2240    -4.4160    -2.9480 C             1 RES     
     194 C           -0.5980    -4.3710    -2.9830 C             1 RES     
     195 C            0.0140    -2.9060    -3.1080 C             1 RES     
     196 C            1.4170    -2.3510    -2.6100 C             1 RES     
     197 C            1.4990    -0.7210    -2.4640 C             1 RES     
     198 C           -2.8030    -3.8820    -1.5580 C             1 RES     
     199 C           -4.3150    -3.4510    -1.4810 C             1 RES     
     200 C           -4.7060    -2.6920    -0.1970 C             1 RES     
     201 C           -4.8620    -1.1560    -0.2530 C             1 RES     
     202 C           -5.9460    -0.6340    -1.2060 C             1 RES     
     203 C           -6.3620     0.8380    -0.9660 C             1 RES     
     204 H           -5.9530    -7.9440    -5.4980 H             1 RES     
     205 H           -4.3380    -7.1520    -5.7160 H             1 RES     
     206 H           -5.8290    -6.1520    -5.4460 H             1 RES     
     207 H           -6.1100    -7.1450    -3.2210 H             1 RES     
     208 H           -4.6120    -8.1290    -3.3750 H             1 RES     
     209 H           -4.8480    -5.0700    -3.5090 H             1 RES     
     210 H           -4.4320    -6.1180    -2.0310 H             1 RES     
     211 H           -2.5580    -5.9960    -4.4150 H             1 RES     
     212 H           -2.3040    -6.6350    -2.7500 H             1 RES     
     213 H           -2.5860    -3.7260    -3.7410 H             1 RES     
     214 H           -0.2120    -4.9470    -3.8540 H             1 RES     
     215 H           -0.2360    -4.8670    -2.0590 H             1 RES     
     216 H           -0.2080    -2.4990    -4.1170 H             1 RES     
     217 H           -0.5810    -2.4260    -2.4660 H             1 RES     
     218 H            1.7450    -2.8180    -1.6580 H             1 RES     
     219 H            2.1310    -2.6800    -3.3910 H             1 RES     
     220 H            0.8750    -0.2690    -3.2590 H             1 RES     
     221 H            2.4950    -0.4620    -2.8840 H             1 RES     
     222 H           -2.5610    -4.5910    -0.7430 H             1 RES     
     223 H           -2.2850    -2.9820    -1.3260 H             1 RES     
     224 H           -4.9580    -4.3220    -1.4010 H             1 RES     
     225 H           -4.6770    -2.9130    -2.3790 H             1 RES     
     226 H           -5.7170    -3.0410     0.1000 H             1 RES     
     227 H           -4.0220    -2.9770     0.6340 H             1 RES     
     228 H           -3.9380    -0.5830    -0.3430 H             1 RES     
     229 H           -5.1740    -0.9680     0.7360 H             1 RES     
     230 H           -5.6310    -0.7430    -2.2430 H             1 RES     
     231 H           -6.8210    -1.2590    -1.0900 H             1 RES     
     232 H           -6.8750     0.9800    -0.0080 H             1 RES     
     233 H           -5.5060     1.5340    -0.9400 H             1 RES     
     234 H           -7.0700     1.1670    -1.7570 H             1 RES     
@<TRIPOS>BOND
       1        2        1 1
       2        8        1 1
       3       59        1 1
       4      105        1 1
       5        3        2 1
       6        6        2 1
       7        4        3 1
       8        7        3 1
       9        5        4 1
      10        6        5 1
      11       12        5 1
      12       13        6 1
      13        8        7 1
      14       11        7 1
      15        9        8 1
      16       10        9 1
      17       14        9 1
      18       11       10 1
      19       49       10 1
      20       16       15 1
      21       22       15 1
      22      151       15 1
      23      197       15 1
      24       17       16 1
      25       20       16 1
      26       18       17 1
      27       21       17 1
      28       19       18 1
      29       20       19 1
      30       45       19 1
      31       26       20 1
      32       22       21 1
      33       25       21 1
      34       23       22 1
      35       24       23 1
      36       27       23 1
      37       25       24 1
      38       33       24 1
      39       29       28 1
      40       32       28 1
      41       37       28 1
      42       30       29 1
      43       31       30 1
      44       32       31 1
      45       33       32 1
      46       34       33 1
      47       35       34 1
      48       36       34 1
      49       37       36 1
      50       38       36 1
      51       39       37 1
      52       41       40 1
      53       44       40 1
      54       49       40 1
      55       42       41 1
      56       43       42 1
      57       44       43 1
      58       45       44 1
      59       46       45 1
      60       47       46 1
      61       48       46 1
      62       49       48 1
      63       50       48 1
      64       52       51 1
      65       66       51 1
      66       67       51 1
      67       68       51 1
      68       53       52 1
      69       69       52 1
      70       70       52 1
      71       54       53 1
      72       71       53 1
      73       72       53 1
      74       55       54 1
      75       73       54 1
      76       74       54 1
      77       56       55 1
      78       60       55 1
      79       75       55 1
      80       57       56 1
      81       76       56 1
      82       77       56 1
      83       58       57 1
      84       78       57 1
      85       79       57 1
      86       59       58 1
      87       80       58 1
      88       81       58 1
      89       82       59 1
      90       83       59 1
      91       61       60 1
      92       84       60 1
      93       85       60 1
      94       62       61 1
      95       86       61 1
      96       87       61 1
      97       63       62 1
      98       88       62 1
      99       89       62 1
     100       64       63 1
     101       90       63 1
     102       91       63 1
     103       65       64 1
     104       92       64 1
     105       93       64 1
     106       94       65 1
     107       95       65 1
     108       96       65 1
     109       98       97 1
     110      112       97 1
     111      113       97 1
     112      114       97 1
     113       99       98 1
     114      115       98 1
     115      116       98 1
     116      100       99 1
     117      117       99 1
     118      118       99 1
     119      101      100 1
     120      119      100 1
     121      120      100 1
     122      102      101 1
     123      106      101 1
     124      121      101 1
     125      103      102 1
     126      122      102 1
     127      123      102 1
     128      104      103 1
     129      124      103 1
     130      125      103 1
     131      105      104 1
     132      126      104 1
     133      127      104 1
     134      128      105 1
     135      129      105 1
     136      107      106 1
     137      130      106 1
     138      131      106 1
     139      108      107 1
     140      132      107 1
     141      133      107 1
     142      109      108 1
     143      134      108 1
     144      135      108 1
     145      110      109 1
     146      136      109 1
     147      137      109 1
     148      111      110 1
     149      138      110 1
     150      139      110 1
     151      140      111 1
     152      141      111 1
     153      142      111 1
     154      144      143 1
     155      158      143 1
     156      159      143 1
     157      160      143 1
     158      145      144 1
     159      161      144 1
     160      162      144 1
     161      146      145 1
     162      163      145 1
     163      164      145 1
     164      147      146 1
     165      165      146 1
     166      166      146 1
     167      148      147 1
     168      152      147 1
     169      167      147 1
     170      149      148 1
     171      168      148 1
     172      169      148 1
     173      150      149 1
     174      170      149 1
     175      171      149 1
     176      151      150 1
     177      172      150 1
     178      173      150 1
     179      174      151 1
     180      175      151 1
     181      153      152 1
     182      176      152 1
     183      177      152 1
     184      154      153 1
     185      178      153 1
     186      179      153 1
     187      155      154 1
     188      180      154 1
     189      181      154 1
     190      156      155 1
     191      182      155 1
     192      183      155 1
     193      157      156 1
     194      184      156 1
     195      185      156 1
     196      186      157 1
     197      187      157 1
     198      188      157 1
     199      190      189 1
     200      204      189 1
     201      205      189 1
     202      206      189 1
     203      191      190 1
     204      207      190 1
     205      208      190 1
     206      192      191 1
     207      209      191 1
     208      210      191 1
     209      193      192 1
     210      211      192 1
     211      212      192 1
     212      194      193 1
     213      198      193 1
     214      213      193 1
     215      195      194 1
     216      214      194 1
     217      215      194 1
     218      196      195 1
     219      216      195 1
     220      217      195 1
     221      197      196 1
     222      218      196 1
     223      219      196 1
     224      220      197 1
     225      221      197 1
     226      199      198 1
     227      222      198 1
     228      223      198 1
     229      200      199 1
     230      224      199 1
     231      225      199 1
     232      201      200 1
     233      226      200 1
     234      227      200 1
     235      202      201 1
     236      228      201 1
     237      229      201 1
     238      203      202 1
     239      230      202 1
     240      231      202 1
     241      232      203 1
     242      233      203 1
     243      234      203 1
@<TRIPOS>SUBSTRUCTURE
       1 RES             1 RESIDUE    0 **** ROOT      0
