@<TRIPOS>MOLECULE
RES
123 127 1 0 1
SMALL
NO_CHARGES
@<TRIPOS>CRYSIN
   23.5762    26.6088    21.7441    90.0000    90.0000    90.0000 1 1
@<TRIPOS>ATOM
       1 C0           9.5791     9.8827     9.3006 C0            1 RES     
       2 C1           8.7127    10.4134    10.4617 C1            1 RES     
       3 C1           9.4571    11.1912    11.4735 C1            1 RES     
       4 S2           8.6556    10.8364    13.0450 S2            1 RES     
       5 C1           7.1597    10.7371    12.0368 C1            1 RES     
       6 C1           7.4182    10.3175    10.7453 C1            1 RES     
       7 C1          10.8123    10.7692    11.1520 C1            1 RES     
       8 C1          10.9332    10.0933     9.9725 C1            1 RES     
       9 C1          12.2684     9.7781     9.6622 C1            1 RES     
      10 C1          13.1618    10.2851    10.6361 C1            1 RES     
      11 S2          12.2831    11.0970    11.8416 S2            1 RES     
      12 H3           6.6605     9.8590    10.1313 H3            1 RES     
      13 H3          12.5730     9.2318     8.7782 H3            1 RES     
      14 N4          15.2257     9.1306     9.9474 N4            1 RES     
      15 C1          16.5715     8.8968     9.9726 C1            1 RES     
      16 C1          17.4269     9.7070    10.7291 C1            1 RES     
      17 C1          16.8738    10.7569    11.4514 C1            1 RES     
      18 N4          17.6049    11.6175    12.2013 N4            1 RES     
      19 S2          16.4472    12.6318    12.8001 S2            1 RES     
      20 N4          15.0415    12.0369    12.1682 N4            1 RES     
      21 C1          15.4698    10.9780    11.4314 C1            1 RES     
      22 C1          14.6380    10.1372    10.6609 C1            1 RES     
      23 H5          16.9831     8.0712     9.4065 H5            1 RES     
      24 C0           9.4759    10.8359     8.0658 C0            1 RES     
      25 C0           8.0800    10.8786     7.4361 C0            1 RES     
      26 C0           7.8733    11.9038     6.3168 C0            1 RES     
      27 C0           8.0479    13.3772     6.7180 C0            1 RES     
      28 C0           7.3198    13.7470     8.0266 C0            1 RES     
      29 C0           7.2651    15.2634     8.2482 C0            1 RES     
      30 C0           6.1449    15.8970     7.4084 C0            1 RES     
      31 C0           6.1141    17.4179     7.5644 C0            1 RES     
      32 C0           4.8612    17.9969     6.9000 C0            1 RES     
      33 C0           4.8306    19.5268     6.7115 C0            1 RES     
      34 C0           4.9734    20.4193     7.9606 C0            1 RES     
      35 C0           6.4344    20.6056     8.4278 C0            1 RES     
      36 C0           6.6230    21.5478     9.6334 C0            1 RES     
      37 C0           6.6271    23.0703     9.3551 C0            1 RES     
      38 C0           5.3255    23.7307     8.8770 C0            1 RES     
      39 C0           4.1561    23.4964     9.8313 C0            1 RES     
      40 H6           9.7298    11.8606     8.4108 H6            1 RES     
      41 H6          10.2226    10.5501     7.2931 H6            1 RES     
      42 H6           7.8834     9.9062     6.9875 H6            1 RES     
      43 H6           7.3146    11.0728     8.2100 H6            1 RES     
      44 H6           8.5374    11.6796     5.4541 H6            1 RES     
      45 H6           6.8222    11.7743     5.9738 H6            1 RES     
      46 H6           9.1259    13.6182     6.8429 H6            1 RES     
      47 H6           7.6699    13.9742     5.8626 H6            1 RES     
      48 H6           6.2852    13.3403     8.0554 H6            1 RES     
      49 H6           7.8893    13.2891     8.8636 H6            1 RES     
      50 H6           8.2598    15.7148     8.0369 H6            1 RES     
      51 H6           7.0179    15.4567     9.3152 H6            1 RES     
      52 H6           6.2647    15.6615     6.3306 H6            1 RES     
      53 H6           5.1781    15.4683     7.7566 H6            1 RES     
      54 H6           6.0792    17.6592     8.6461 H6            1 RES     
      55 H6           7.0339    17.8333     7.0976 H6            1 RES     
      56 H6           4.7613    17.5651     5.8795 H6            1 RES     
      57 H6           3.9752    17.6739     7.4914 H6            1 RES     
      58 H6           5.5837    19.8391     5.9562 H6            1 RES     
      59 H6           3.8278    19.7338     6.2750 H6            1 RES     
      60 H6           4.3200    20.0488     8.7799 H6            1 RES     
      61 H6           4.5907    21.3988     7.6496 H6            1 RES     
      62 H6           6.8174    19.6312     8.7615 H6            1 RES     
      63 H6           7.0822    20.9464     7.5912 H6            1 RES     
      64 H6           7.6468    21.3414    10.0190 H6            1 RES     
      65 H6           5.9184    21.2775    10.4479 H6            1 RES     
      66 H6           6.9124    23.5663    10.3090 H6            1 RES     
      67 H6           7.4247    23.2973     8.6142 H6            1 RES     
      68 H6           5.5060    24.8253     8.8086 H6            1 RES     
      69 H6           5.0672    23.4064     7.8542 H6            1 RES     
      70 H6           4.4052    23.8770    10.8444 H6            1 RES     
      71 H6           3.2607    24.0357     9.4573 H6            1 RES     
      72 H6           3.9077    22.4176     9.8974 H6            1 RES     
      73 C0           9.3942     8.3487     8.9491 C0            1 RES     
      74 C0           7.9338     7.8340     8.9540 C0            1 RES     
      75 C0           7.6783     6.3984     8.4460 C0            1 RES     
      76 C0           7.6825     6.1667     6.9146 C0            1 RES     
      77 C0           6.7929     7.1753     6.1583 C0            1 RES     
      78 C0           6.4275     6.7808     4.7200 C0            1 RES     
      79 C0           5.2703     5.7689     4.6887 C0            1 RES     
      80 C0           4.8395     5.4448     3.2506 C0            1 RES     
      81 C0           3.5687     4.5849     3.2521 C0            1 RES     
      82 C0           3.1576     3.9473     1.9073 C0            1 RES     
      83 C0           2.7889     4.8690     0.7253 C0            1 RES     
      84 C0           4.0027     5.4579    -0.0223 C0            1 RES     
      85 C0           3.6573     6.3027    -1.2672 C0            1 RES     
      86 C0           3.3505     5.5458    -2.5836 C0            1 RES     
      87 C0           2.0721     4.6974    -2.6641 C0            1 RES     
      88 C0           0.8070     5.5001    -2.3673 C0            1 RES     
      89 H6           9.8830     8.1561     7.9696 H6            1 RES     
      90 H6           9.9209     7.7214     9.7029 H6            1 RES     
      91 H6           7.6258     7.8256    10.0200 H6            1 RES     
      92 H6           7.2412     8.4997     8.4220 H6            1 RES     
      93 H6           8.3602     5.6790     8.9480 H6            1 RES     
      94 H6           6.6436     6.1496     8.7725 H6            1 RES     
      95 H6           8.7119     6.2105     6.4975 H6            1 RES     
      96 H6           7.2974     5.1363     6.7615 H6            1 RES     
      97 H6           5.8500     7.3839     6.7104 H6            1 RES     
      98 H6           7.3744     8.1046     6.0956 H6            1 RES     
      99 H6           7.3242     6.4196     4.1703 H6            1 RES     
     100 H6           6.0564     7.6965     4.2104 H6            1 RES     
     101 H6           5.5551     4.8312     5.2103 H6            1 RES     
     102 H6           4.4042     6.2227     5.2221 H6            1 RES     
     103 H6           4.6182     6.3998     2.7361 H6            1 RES     
     104 H6           5.6710     4.9122     2.7413 H6            1 RES     
     105 H6           3.7307     3.7327     3.9485 H6            1 RES     
     106 H6           2.7255     5.1917     3.6518 H6            1 RES     
     107 H6           3.9265     3.2165     1.5759 H6            1 RES     
     108 H6           2.2389     3.3659     2.1467 H6            1 RES     
     109 H6           2.0865     5.6646     1.0560 H6            1 RES     
     110 H6           2.2449     4.2210     0.0267 H6            1 RES     
     111 H6           4.5208     6.1441     0.6623 H6            1 RES     
     112 H6           4.7229     4.6616    -0.3096 H6            1 RES     
     113 H6           4.5784     6.8828    -1.4999 H6            1 RES     
     114 H6           2.8688     7.0463    -1.0250 H6            1 RES     
     115 H6           3.2781     6.3156    -3.3836 H6            1 RES     
     116 H6           4.2166     4.8942    -2.8321 H6            1 RES     
     117 H6           1.9950     4.2986    -3.6992 H6            1 RES     
     118 H6           2.1376     3.8129    -2.0071 H6            1 RES     
     119 H6           0.7207     6.3551    -3.0710 H6            1 RES     
     120 H6          -0.0822     4.8468    -2.4903 H6            1 RES     
     121 H6           0.8156     5.8823    -1.3262 H6            1 RES     
     122 H5           6.1725    10.6831    12.4754 H5            1 RES     
     123 H3          18.4939     9.5232    10.7495 H3            1 RES     
@<TRIPOS>BOND
       1        1        2 1
       2        1        8 1
       3        1       24 1
       4        1       73 1
       5        2        3 1
       6        2        6 1
       7        3        4 1
       8        3        7 1
       9        4        5 1
      10        5        6 1
      11        5      122 1
      12        6       12 1
      13        7        8 1
      14        7       11 1
      15        8        9 1
      16        9       10 1
      17        9       13 1
      18       10       11 1
      19       10       22 1
      20       14       15 1
      21       14       22 1
      22       15       16 1
      23       15       23 1
      24       16       17 1
      25       16      123 1
      26       17       18 1
      27       17       21 1
      28       18       19 1
      29       19       20 1
      30       20       21 1
      31       21       22 1
      32       24       25 1
      33       24       40 1
      34       24       41 1
      35       25       26 1
      36       25       42 1
      37       25       43 1
      38       26       27 1
      39       26       44 1
      40       26       45 1
      41       27       28 1
      42       27       46 1
      43       27       47 1
      44       28       29 1
      45       28       48 1
      46       28       49 1
      47       29       30 1
      48       29       50 1
      49       29       51 1
      50       30       31 1
      51       30       52 1
      52       30       53 1
      53       31       32 1
      54       31       54 1
      55       31       55 1
      56       32       33 1
      57       32       56 1
      58       32       57 1
      59       33       34 1
      60       33       58 1
      61       33       59 1
      62       34       35 1
      63       34       60 1
      64       34       61 1
      65       35       36 1
      66       35       62 1
      67       35       63 1
      68       36       37 1
      69       36       64 1
      70       36       65 1
      71       37       38 1
      72       37       66 1
      73       37       67 1
      74       38       39 1
      75       38       68 1
      76       38       69 1
      77       39       70 1
      78       39       71 1
      79       39       72 1
      80       73       74 1
      81       73       89 1
      82       73       90 1
      83       74       75 1
      84       74       91 1
      85       74       92 1
      86       75       76 1
      87       75       93 1
      88       75       94 1
      89       76       77 1
      90       76       95 1
      91       76       96 1
      92       77       78 1
      93       77       97 1
      94       77       98 1
      95       78       79 1
      96       78       99 1
      97       78      100 1
      98       79       80 1
      99       79      101 1
     100       79      102 1
     101       80       81 1
     102       80      103 1
     103       80      104 1
     104       81       82 1
     105       81      105 1
     106       81      106 1
     107       82       83 1
     108       82      107 1
     109       82      108 1
     110       83       84 1
     111       83      109 1
     112       83      110 1
     113       84       85 1
     114       84      111 1
     115       84      112 1
     116       85       86 1
     117       85      113 1
     118       85      114 1
     119       86       87 1
     120       86      115 1
     121       86      116 1
     122       87       88 1
     123       87      117 1
     124       87      118 1
     125       88      119 1
     126       88      120 1
     127       88      121 1
@<TRIPOS>SUBSTRUCTURE
       1 RES             1 RESIDUE    0 **** ROOT      0
