@<TRIPOS>MOLECULE
RES
124 128 1 0 1
SMALL
NO_CHARGES
@<TRIPOS>CRYSIN
   20.5626    19.1173    20.5484    90.0000    90.0000    90.0000 1 1
@<TRIPOS>ATOM
       1 C0          10.0652    10.6549     9.0553 C0            1 RES     
       2 C0           8.9109    11.0930     9.9573 C0            1 RES     
       3 C0           9.2282    10.9602    11.2676 C0            1 RES     
       4 S1           8.0197    11.4853    12.2998 S1            1 RES     
       5 C0           7.0006    11.9242    11.0072 C0            1 RES     
       6 C0           7.6643    11.6928     9.7903 C0            1 RES     
       7 C0          10.5886    10.5634    11.3878 C0            1 RES     
       8 C0          11.0931    10.4536    10.1795 C0            1 RES     
       9 C0          12.5375    10.3187    10.2145 C0            1 RES     
      10 C0          12.9950    10.3154    11.5235 C0            1 RES     
      11 S1          11.7023    10.4512    12.7752 S1            1 RES     
      12 H2           7.2606    12.0082     8.8519 H2            1 RES     
      13 H2          13.1915    10.3681     9.3610 H2            1 RES     
      14 N3           3.4819    12.8994    10.0813 N3            1 RES     
      15 C0           4.7503    12.4024    10.0223 C0            1 RES     
      16 C0           5.6314    12.4950    11.1185 C0            1 RES     
      17 C0           5.1378    13.1123    12.2798 C0            1 RES     
      18 N3           5.8537    13.2865    13.4227 N3            1 RES     
      19 S1           4.7812    14.0806    14.3994 S1            1 RES     
      20 N3           3.4276    14.2291    13.4647 N3            1 RES     
      21 C0           3.8154    13.6305    12.3092 C0            1 RES     
      22 C0           2.9954    13.5130    11.1946 C0            1 RES     
      23 H4           5.0620    11.9017     9.1227 H4            1 RES     
      24 C5           2.8734    16.8361     6.3172 C5            1 RES     
      25 C5           4.2458    16.6319     6.9607 C5            1 RES     
      26 C5           4.5752    15.1591     7.2623 C5            1 RES     
      27 C5           4.6323    14.2574     6.0134 C5            1 RES     
      28 C5           5.0191    12.8208     6.4053 C5            1 RES     
      29 C5           4.8837    11.8302     5.2402 C5            1 RES     
      30 C5           5.1936    10.3741     5.6620 C5            1 RES     
      31 C5           6.7103    10.0190     5.7545 C5            1 RES     
      32 C5           7.2428     9.5823     7.1541 C5            1 RES     
      33 C5           6.5166     8.3163     7.6953 C5            1 RES     
      34 C5           6.5692     8.2184     9.2314 C5            1 RES     
      35 C5           5.4516     7.3045     9.7782 C5            1 RES     
      36 C5           5.3285     7.4373    11.3069 C5            1 RES     
      37 C5           4.0520     6.7904    11.8739 C5            1 RES     
      38 C5           4.0058     5.2750    11.7127 C5            1 RES     
      39 C5           8.7957     9.4380     7.0438 C5            1 RES     
      40 C0           9.8259     9.3124     8.2316 C0            1 RES     
      41 C5          11.1661     8.7873     7.5556 C5            1 RES     
      42 C5          11.4533     7.2634     7.7694 C5            1 RES     
      43 C5          12.1981     6.9466     9.1081 C5            1 RES     
      44 C5          13.7009     7.3118     9.1383 C5            1 RES     
      45 C5          14.3627     7.1610    10.5201 C5            1 RES     
      46 C5          14.5640     5.7122    11.0038 C5            1 RES     
      47 C5          15.4987     4.8530    10.1251 C5            1 RES     
      48 C5          16.9170     5.4202    10.0047 C5            1 RES     
      49 C5          12.1083     6.5676     6.5300 C5            1 RES     
      50 C5          13.2832     7.2988     5.8304 C5            1 RES     
      51 C5          13.9904     6.4328     4.7634 C5            1 RES     
      52 C5          13.0711     5.9644     3.6194 C5            1 RES     
      53 C5          13.7987     5.1112     2.5608 C5            1 RES     
      54 C5          14.8462     5.9007     1.7519 C5            1 RES     
      55 C5          15.5737     5.0484     0.6965 C5            1 RES     
      56 C5          14.6543     4.5103    -0.4009 C5            1 RES     
      57 H6           2.8287    16.3625     5.3156 H6            1 RES     
      58 H6           2.6868    17.9234     6.1867 H6            1 RES     
      59 H6           2.0738    16.4154     6.9632 H6            1 RES     
      60 H6           5.0287    17.0669     6.3038 H6            1 RES     
      61 H6           4.2554    17.1874     7.9247 H6            1 RES     
      62 H6           5.5622    15.1313     7.7730 H6            1 RES     
      63 H6           3.8116    14.7618     7.9670 H6            1 RES     
      64 H6           5.3711    14.6544     5.2834 H6            1 RES     
      65 H6           3.6286    14.2405     5.5390 H6            1 RES     
      66 H6           6.0518    12.8100     6.8149 H6            1 RES     
      67 H6           4.3023    12.4883     7.1815 H6            1 RES     
      68 H6           3.8176    11.8647     4.9234 H6            1 RES     
      69 H6           5.5068    12.1239     4.3682 H6            1 RES     
      70 H6           4.6245    10.1548     6.5879 H6            1 RES     
      71 H6           4.7737     9.7159     4.8719 H6            1 RES     
      72 H6           7.2783    10.9188     5.4273 H6            1 RES     
      73 H6           6.9444     9.2264     5.0111 H6            1 RES     
      74 H6           6.9538    10.4051     7.7689 H6            1 RES     
      75 H6           5.4446     8.4251     7.4573 H6            1 RES     
      76 H6           6.8447     7.3816     7.1912 H6            1 RES     
      77 H6           7.5763     7.9123     9.5854 H6            1 RES     
      78 H6           6.3474     9.2300     9.6313 H6            1 RES     
      79 H6           5.6185     6.2500     9.4706 H6            1 RES     
      80 H6           4.4850     7.6489     9.3476 H6            1 RES     
      81 H6           6.2339     7.0294    11.8041 H6            1 RES     
      82 H6           5.2545     8.5198    11.5558 H6            1 RES     
      83 H6           3.1584     7.2391    11.3851 H6            1 RES     
      84 H6           3.9967     7.0238    12.9594 H6            1 RES     
      85 H6           4.8721     4.8099    12.2277 H6            1 RES     
      86 H6           4.0079     4.9881    10.6415 H6            1 RES     
      87 H6           3.0702     4.8899    12.1725 H6            1 RES     
      88 H6           9.1749    10.3073     6.4617 H6            1 RES     
      89 H6           8.9163     8.5370     6.3980 H6            1 RES     
      90 H6          11.0887     8.9677     6.4628 H6            1 RES     
      91 H6          12.0585     9.3845     7.7886 H6            1 RES     
      92 H6          10.4605     6.7659     7.8622 H6            1 RES     
      93 H6          11.6647     7.4736     9.9287 H6            1 RES     
      94 H6          12.1223     5.8561     9.3068 H6            1 RES     
      95 H6          14.2713     6.6991     8.4189 H6            1 RES     
      96 H6          13.8141     8.3644     8.8402 H6            1 RES     
      97 H6          15.3555     7.6571    10.4904 H6            1 RES     
      98 H6          13.7573     7.7094    11.2697 H6            1 RES     
      99 H6          13.5785     5.2084    11.0836 H6            1 RES     
     100 H6          15.0016     5.7546    12.0256 H6            1 RES     
     101 H6          15.0705     4.7184     9.1108 H6            1 RES     
     102 H6          15.5732     3.8469    10.5914 H6            1 RES     
     103 H6          17.3735     5.5442    11.0098 H6            1 RES     
     104 H6          17.5471     4.7214     9.4148 H6            1 RES     
     105 H6          16.9170     6.3960     9.4772 H6            1 RES     
     106 H6          11.3159     6.4655     5.7585 H6            1 RES     
     107 H6          12.4095     5.5403     6.8305 H6            1 RES     
     108 H6          14.0667     7.5997     6.5404 H6            1 RES     
     109 H6          12.9166     8.2303     5.3546 H6            1 RES     
     110 H6          14.8147     7.0489     4.3488 H6            1 RES     
     111 H6          14.4386     5.5425     5.2572 H6            1 RES     
     112 H6          12.5958     6.8399     3.1265 H6            1 RES     
     113 H6          12.2712     5.3260     4.0492 H6            1 RES     
     114 H6          14.2782     4.2369     3.0536 H6            1 RES     
     115 H6          13.0223     4.7341     1.8634 H6            1 RES     
     116 H6          15.6258     6.2897     2.4376 H6            1 RES     
     117 H6          14.3569     6.7649     1.2517 H6            1 RES     
     118 H6          16.3420     5.6887     0.2105 H6            1 RES     
     119 H6          16.0948     4.2000     1.1907 H6            1 RES     
     120 H6          13.9040     3.8061     0.0115 H6            1 RES     
     121 H6          15.2611     3.9572    -1.1489 H6            1 RES     
     122 H6          14.1357     5.3470    -0.9147 H6            1 RES     
     123 H4          14.0475    10.2989    11.7722 H4            1 RES     
     124 H4           1.9845    13.8967    11.2003 H4            1 RES     
@<TRIPOS>BOND
       1        1        2 1
       2        1        8 1
       3        1       40 1
       4        2        3 1
       5        2        6 1
       6        3        4 1
       7        3        7 1
       8        4        5 1
       9        5        6 1
      10        5       16 1
      11        6       12 1
      12        7        8 1
      13        7       11 1
      14        8        9 1
      15        9       10 1
      16        9       13 1
      17       10       11 1
      18       10      123 1
      19       14       15 1
      20       14       22 1
      21       15       16 1
      22       15       23 1
      23       16       17 1
      24       17       18 1
      25       17       21 1
      26       18       19 1
      27       19       20 1
      28       20       21 1
      29       21       22 1
      30       22      124 1
      31       24       25 1
      32       24       57 1
      33       24       58 1
      34       24       59 1
      35       25       26 1
      36       25       60 1
      37       25       61 1
      38       26       27 1
      39       26       62 1
      40       26       63 1
      41       27       28 1
      42       27       64 1
      43       27       65 1
      44       28       29 1
      45       28       66 1
      46       28       67 1
      47       29       30 1
      48       29       68 1
      49       29       69 1
      50       30       31 1
      51       30       70 1
      52       30       71 1
      53       31       32 1
      54       31       72 1
      55       31       73 1
      56       32       33 1
      57       32       39 1
      58       32       74 1
      59       33       34 1
      60       33       75 1
      61       33       76 1
      62       34       35 1
      63       34       77 1
      64       34       78 1
      65       35       36 1
      66       35       79 1
      67       35       80 1
      68       36       37 1
      69       36       81 1
      70       36       82 1
      71       37       38 1
      72       37       83 1
      73       37       84 1
      74       38       85 1
      75       38       86 1
      76       38       87 1
      77       39       40 1
      78       39       88 1
      79       39       89 1
      80       40       41 1
      81       41       42 1
      82       41       90 1
      83       41       91 1
      84       42       43 1
      85       42       49 1
      86       42       92 1
      87       43       44 1
      88       43       93 1
      89       43       94 1
      90       44       45 1
      91       44       95 1
      92       44       96 1
      93       45       46 1
      94       45       97 1
      95       45       98 1
      96       46       47 1
      97       46       99 1
      98       46      100 1
      99       47       48 1
     100       47      101 1
     101       47      102 1
     102       48      103 1
     103       48      104 1
     104       48      105 1
     105       49       50 1
     106       49      106 1
     107       49      107 1
     108       50       51 1
     109       50      108 1
     110       50      109 1
     111       51       52 1
     112       51      110 1
     113       51      111 1
     114       52       53 1
     115       52      112 1
     116       52      113 1
     117       53       54 1
     118       53      114 1
     119       53      115 1
     120       54       55 1
     121       54      116 1
     122       54      117 1
     123       55       56 1
     124       55      118 1
     125       55      119 1
     126       56      120 1
     127       56      121 1
     128       56      122 1
@<TRIPOS>SUBSTRUCTURE
       1 RES             1 RESIDUE    0 **** ROOT      0
