@<TRIPOS>MOLECULE
RES
124 128 1 0 1
SMALL
NO_CHARGES
@<TRIPOS>CRYSIN
   21.2213    19.5381    19.1135    90.0000    90.0000    90.0000 1 1
@<TRIPOS>ATOM
       1 C0           9.8894     9.5092     9.8021 C0            1 RES     
       2 C0           8.8250    10.5723    10.2918 C0            1 RES     
       3 C0           9.4184    11.7555    10.5773 C0            1 RES     
       4 S1           8.3533    12.9561    11.0682 S1            1 RES     
       5 C0           6.9918    11.9505    10.9185 C0            1 RES     
       6 C0           7.4341    10.6675    10.5654 C0            1 RES     
       7 C0          10.8225    11.6250    10.4523 C0            1 RES     
       8 C0          11.1067    10.4055    10.0551 C0            1 RES     
       9 C0          12.5208    10.1627    10.1148 C0            1 RES     
      10 C0          13.2079    11.2660    10.5875 C0            1 RES     
      11 S1          12.1683    12.7002    10.9148 S1            1 RES     
      12 H2           6.7431     9.8698    10.4753 H2            1 RES     
      13 H2          12.9582     9.2224     9.9573 H2            1 RES     
      14 N3           3.2027    11.8868    10.6339 N3            1 RES     
      15 C0           4.5098    11.5020    10.6187 C0            1 RES     
      16 C0           5.5512    12.3732    11.0356 C0            1 RES     
      17 C0           5.1536    13.6531    11.4788 C0            1 RES     
      18 N3           6.0035    14.6166    11.9200 N3            1 RES     
      19 S1           4.9792    15.8574    12.2904 S1            1 RES     
      20 N3           3.4858    15.2660    11.9194 N3            1 RES     
      21 C0           3.7738    14.0124    11.4797 C0            1 RES     
      22 C0           2.8110    13.1163    11.0492 C0            1 RES     
      23 H4           4.7215    10.5213    10.2460 H4            1 RES     
      24 C5           2.8239    17.0561     6.1973 C5            1 RES     
      25 C5           3.6842    16.7110     7.4128 C5            1 RES     
      26 C5           3.8921    15.1980     7.5960 C5            1 RES     
      27 C5           4.7132    14.5522     6.4648 C5            1 RES     
      28 C5           4.9216    13.0527     6.7263 C5            1 RES     
      29 C5           5.8674    12.4249     5.6789 C5            1 RES     
      30 C5           6.1798    10.9206     5.8980 C5            1 RES     
      31 C5           6.6381    10.6659     7.3350 C5            1 RES     
      32 C5           7.3762     9.3372     7.6360 C5            1 RES     
      33 C5           6.5700     7.9816     7.6072 C5            1 RES     
      34 C5           5.6688     7.9774     8.8731 C5            1 RES     
      35 C5           4.7277     6.8690     9.3596 C5            1 RES     
      36 C5           4.1279     7.4195    10.6954 C5            1 RES     
      37 C5           3.1325     6.5417    11.4520 C5            1 RES     
      38 C5           3.7796     5.3219    12.0961 C5            1 RES     
      39 C5           8.8515     9.3808     7.2123 C5            1 RES     
      40 C0           9.8257     8.7954     8.3152 C0            1 RES     
      41 C5          11.1596     8.2994     7.6071 C5            1 RES     
      42 C5          11.6163     6.8188     7.8520 C5            1 RES     
      43 C5          12.4900     6.6187     9.1240 C5            1 RES     
      44 C5          13.9622     7.0754     8.9904 C5            1 RES     
      45 C5          14.7127     7.1267    10.3357 C5            1 RES     
      46 C5          15.0178     5.7616    10.9721 C5            1 RES     
      47 C5          15.9622     4.8643    10.1489 C5            1 RES     
      48 C5          17.3277     5.5068     9.8852 C5            1 RES     
      49 C5          12.2416     6.1369     6.5736 C5            1 RES     
      50 C5          13.2853     6.9597     5.7688 C5            1 RES     
      51 C5          14.0283     6.1595     4.6754 C5            1 RES     
      52 C5          13.1333     5.5903     3.5566 C5            1 RES     
      53 C5          13.9359     4.8508     2.4580 C5            1 RES     
      54 C5          14.8497     5.7797     1.6285 C5            1 RES     
      55 C5          15.6618     5.0512     0.5406 C5            1 RES     
      56 C5          14.8032     4.4202    -0.5555 C5            1 RES     
      57 H6           3.3155    16.7432     5.2543 H6            1 RES     
      58 H6           2.6698    18.1549     6.1540 H6            1 RES     
      59 H6           1.8321    16.5626     6.2789 H6            1 RES     
      60 H6           4.6674    17.2244     7.3334 H6            1 RES     
      61 H6           3.1659    17.1001     8.3164 H6            1 RES     
      62 H6           4.4422    15.0518     8.5526 H6            1 RES     
      63 H6           2.9039    14.6976     7.6869 H6            1 RES     
      64 H6           5.7031    15.0595     6.4218 H6            1 RES     
      65 H6           4.2052    14.6737     5.4863 H6            1 RES     
      66 H6           5.3785    12.9612     7.7347 H6            1 RES     
      67 H6           3.9431    12.5266     6.7242 H6            1 RES     
      68 H6           5.4512    12.5597     4.6575 H6            1 RES     
      69 H6           6.8308    12.9806     5.7291 H6            1 RES     
      70 H6           5.2925    10.2866     5.6850 H6            1 RES     
      71 H6           6.9870    10.6510     5.1832 H6            1 RES     
      72 H6           5.7584    10.7706     7.9971 H6            1 RES     
      73 H6           7.3356    11.4852     7.6231 H6            1 RES     
      74 H6           7.5568     9.4266     8.6451 H6            1 RES     
      75 H6           6.0008     7.8761     6.6598 H6            1 RES     
      76 H6           7.2708     7.1231     7.7037 H6            1 RES     
      77 H6           6.3939     8.0156     9.7077 H6            1 RES     
      78 H6           5.0452     8.8842     8.7986 H6            1 RES     
      79 H6           5.2957     5.9300     9.5358 H6            1 RES     
      80 H6           3.9198     6.6865     8.6211 H6            1 RES     
      81 H6           4.9475     7.6814    11.4058 H6            1 RES     
      82 H6           3.5869     8.3618    10.4579 H6            1 RES     
      83 H6           2.2955     6.2490    10.7862 H6            1 RES     
      84 H6           2.7171     7.1599    12.2813 H6            1 RES     
      85 H6           4.5902     5.6394    12.7892 H6            1 RES     
      86 H6           4.1932     4.6415    11.3269 H6            1 RES     
      87 H6           3.0132     4.7797    12.6903 H6            1 RES     
      88 H6           9.2072    10.4217     7.0525 H6            1 RES     
      89 H6           8.8976     8.8681     6.2273 H6            1 RES     
      90 H6          10.9109     8.2777     6.5291 H6            1 RES     
      91 H6          11.9844     9.0385     7.6424 H6            1 RES     
      92 H6          10.6840     6.2403     8.0419 H6            1 RES     
      93 H6          11.9825     7.1452     9.9591 H6            1 RES     
      94 H6          12.5078     5.5375     9.3811 H6            1 RES     
      95 H6          14.5156     6.4211     8.2903 H6            1 RES     
      96 H6          13.9894     8.0934     8.5585 H6            1 RES     
      97 H6          15.6668     7.6720    10.1869 H6            1 RES     
      98 H6          14.1256     7.7230    11.0639 H6            1 RES     
      99 H6          14.0685     5.2185    11.1627 H6            1 RES     
     100 H6          15.4979     5.9505    11.9572 H6            1 RES     
     101 H6          15.4948     4.5843     9.1825 H6            1 RES     
     102 H6          16.1275     3.9297    10.7263 H6            1 RES     
     103 H6          17.8142     5.7927    10.8423 H6            1 RES     
     104 H6          17.9823     4.7843     9.3552 H6            1 RES     
     105 H6          17.2321     6.4041     9.2396 H6            1 RES     
     106 H6          11.4146     5.9280     5.8611 H6            1 RES     
     107 H6          12.6649     5.1541     6.8752 H6            1 RES     
     108 H6          14.0760     7.3554     6.4200 H6            1 RES     
     109 H6          12.7926     7.8393     5.3024 H6            1 RES     
     110 H6          14.7624     6.8601     4.2302 H6            1 RES     
     111 H6          14.5920     5.3262     5.1503 H6            1 RES     
     112 H6          12.5422     6.4056     3.0858 H6            1 RES     
     113 H6          12.4300     4.8612     4.0077 H6            1 RES     
     114 H6          14.5406     4.0396     2.9196 H6            1 RES     
     115 H6          13.1978     4.3814     1.7714 H6            1 RES     
     116 H6          15.5910     6.2596     2.2977 H6            1 RES     
     117 H6          14.2381     6.5781     1.1543 H6            1 RES     
     118 H6          16.3291     5.7978     0.0557 H6            1 RES     
     119 H6          16.3017     4.2706     1.0055 H6            1 RES     
     120 H6          14.1576     3.6168    -0.1478 H6            1 RES     
     121 H6          15.4658     3.9676    -1.3243 H6            1 RES     
     122 H6          14.1730     5.1925    -1.0453 H6            1 RES     
     123 H4          14.2644    11.2384    10.8173 H4            1 RES     
     124 H4           1.7610    13.3827    11.0369 H4            1 RES     
@<TRIPOS>BOND
       1        1        2 1
       2        1        8 1
       3        1       40 1
       4        2        3 1
       5        2        6 1
       6        3        4 1
       7        3        7 1
       8        4        5 1
       9        5        6 1
      10        5       16 1
      11        6       12 1
      12        7        8 1
      13        7       11 1
      14        8        9 1
      15        9       10 1
      16        9       13 1
      17       10       11 1
      18       10      123 1
      19       14       15 1
      20       14       22 1
      21       15       16 1
      22       15       23 1
      23       16       17 1
      24       17       18 1
      25       17       21 1
      26       18       19 1
      27       19       20 1
      28       20       21 1
      29       21       22 1
      30       22      124 1
      31       24       25 1
      32       24       57 1
      33       24       58 1
      34       24       59 1
      35       25       26 1
      36       25       60 1
      37       25       61 1
      38       26       27 1
      39       26       62 1
      40       26       63 1
      41       27       28 1
      42       27       64 1
      43       27       65 1
      44       28       29 1
      45       28       66 1
      46       28       67 1
      47       29       30 1
      48       29       68 1
      49       29       69 1
      50       30       31 1
      51       30       70 1
      52       30       71 1
      53       31       32 1
      54       31       72 1
      55       31       73 1
      56       32       33 1
      57       32       39 1
      58       32       74 1
      59       33       34 1
      60       33       75 1
      61       33       76 1
      62       34       35 1
      63       34       77 1
      64       34       78 1
      65       35       36 1
      66       35       79 1
      67       35       80 1
      68       36       37 1
      69       36       81 1
      70       36       82 1
      71       37       38 1
      72       37       83 1
      73       37       84 1
      74       38       85 1
      75       38       86 1
      76       38       87 1
      77       39       40 1
      78       39       88 1
      79       39       89 1
      80       40       41 1
      81       41       42 1
      82       41       90 1
      83       41       91 1
      84       42       43 1
      85       42       49 1
      86       42       92 1
      87       43       44 1
      88       43       93 1
      89       43       94 1
      90       44       45 1
      91       44       95 1
      92       44       96 1
      93       45       46 1
      94       45       97 1
      95       45       98 1
      96       46       47 1
      97       46       99 1
      98       46      100 1
      99       47       48 1
     100       47      101 1
     101       47      102 1
     102       48      103 1
     103       48      104 1
     104       48      105 1
     105       49       50 1
     106       49      106 1
     107       49      107 1
     108       50       51 1
     109       50      108 1
     110       50      109 1
     111       51       52 1
     112       51      110 1
     113       51      111 1
     114       52       53 1
     115       52      112 1
     116       52      113 1
     117       53       54 1
     118       53      114 1
     119       53      115 1
     120       54       55 1
     121       54      116 1
     122       54      117 1
     123       55       56 1
     124       55      118 1
     125       55      119 1
     126       56      120 1
     127       56      121 1
     128       56      122 1
@<TRIPOS>SUBSTRUCTURE
       1 RES             1 RESIDUE    0 **** ROOT      0
