@<TRIPOS>MOLECULE
Compound
135 139 1 0 1
SMALL
NO_CHARGES
@<TRIPOS>CRYSIN
   17.6580    23.6020    19.7792    90.0000    90.0000    90.0000  1  1
@<TRIPOS>ATOM
       1 C           -0.3694    -0.4823    -1.7240 C             1 Compound
       2 C           -1.4033    -0.2836    -0.6117 C             1 Compound
       3 C           -0.8451     0.0547     0.5700 C             1 Compound
       4 S           -1.9754     0.3141     1.7728 S             1 Compound
       5 C           -3.2739    -0.0125     0.7205 C             1 Compound
       6 C           -2.7978    -0.3172    -0.5611 C             1 Compound
       7 C            0.5616     0.0839     0.4192 C             1 Compound
       8 C            0.9085    -0.2864    -0.8532 C             1 Compound
       9 C            2.3096    -0.3367    -0.9787 C             1 Compound
      10 C            2.9811     0.0400     0.2010 C             1 Compound
      11 S            1.8557     0.4261     1.4116 S             1 Compound
      12 H           -4.3170     0.0208     1.0012 H             1 Compound
      13 H           -3.4351    -0.5477    -1.4034 H             1 Compound
      14 H            2.8548    -0.6056    -1.8449 H             1 Compound
      15 C            5.0800     0.9857     1.2626 C             1 Compound
      16 N            4.4225     1.9244     1.9915 N             1 Compound
      17 S            5.6559     2.6997     2.7750 S             1 Compound
      18 N            7.0107     1.9127     2.2506 N             1 Compound
      19 C            6.4939     0.9886     1.4043 C             1 Compound
      20 C            7.2638     0.0788     0.6897 C             1 Compound
      21 N            6.6460    -0.7874    -0.1581 N             1 Compound
      22 C            5.2930    -0.8024    -0.3351 C             1 Compound
      23 C            4.4558     0.0807     0.3811 C             1 Compound
      24 H            8.3410     0.0647     0.7951 H             1 Compound
      25 H            4.8680    -1.5312    -1.0127 H             1 Compound
      26 C           -0.6024     0.7451    -2.7126 C             1 Compound
      27 C            0.1620     1.1295    -4.0491 C             1 Compound
      28 C            0.3042     0.0509    -5.1766 C             1 Compound
      29 C            1.6555    -0.6697    -5.4746 C             1 Compound
      30 C            2.4943    -1.1532    -4.2859 C             1 Compound
      31 C            3.4493    -2.3193    -4.5725 C             1 Compound
      32 C            4.4125    -2.1056    -5.7342 C             1 Compound
      33 C            5.2445    -3.3858    -5.9236 C             1 Compound
      34 C            6.2027    -3.3264    -7.1196 C             1 Compound
      35 C            5.4685    -3.2281    -8.4576 C             1 Compound
      36 C            1.3997     2.0512    -3.9296 C             1 Compound
      37 C            1.1610     3.4620    -3.3387 C             1 Compound
      38 C            0.0077     4.2277    -4.0297 C             1 Compound
      39 C            0.0002     5.7378    -3.7403 C             1 Compound
      40 C            1.0872     6.4681    -4.5488 C             1 Compound
      41 C            1.0565     7.9820    -4.3140 C             1 Compound
      42 C            2.0769     8.6831    -5.2217 C             1 Compound
      43 C            2.1007    10.1880    -4.9773 C             1 Compound
      44 H           -1.6575     0.6170    -3.0483 H             1 Compound
      45 H           -0.6241     1.6723    -2.0987 H             1 Compound
      46 H           -0.5991     1.7876    -4.5184 H             1 Compound
      47 H            0.0953     0.5565    -6.1472 H             1 Compound
      48 H           -0.5474    -0.6533    -5.1109 H             1 Compound
      49 H            2.3196     0.0018    -6.0631 H             1 Compound
      50 H            1.4038    -1.5165    -6.1456 H             1 Compound
      51 H            1.8516    -1.5300    -3.4860 H             1 Compound
      52 H            3.0882    -0.2953    -3.9251 H             1 Compound
      53 H            4.0227    -2.5314    -3.6420 H             1 Compound
      54 H            2.8547    -3.2208    -4.8035 H             1 Compound
      55 H            3.8136    -1.9103    -6.6451 H             1 Compound
      56 H            5.0741    -1.2356    -5.5337 H             1 Compound
      57 H            4.5683    -4.2596    -6.0612 H             1 Compound
      58 H            5.8428    -3.5588    -5.0016 H             1 Compound
      59 H            6.7915    -4.2693    -7.1235 H             1 Compound
      60 H            6.9023    -2.4745    -7.0027 H             1 Compound
      61 H            4.9046    -2.2777    -8.5413 H             1 Compound
      62 H            4.7686    -4.0821    -8.5744 H             1 Compound
      63 H            6.2072    -3.2593    -9.2846 H             1 Compound
      64 H            1.7723     2.2275    -4.9635 H             1 Compound
      65 H            2.2027     1.5649    -3.3492 H             1 Compound
      66 H            2.1186     4.0040    -3.4774 H             1 Compound
      67 H            0.9603     3.4181    -2.2469 H             1 Compound
      68 H            0.0402     4.0913    -5.1333 H             1 Compound
      69 H           -0.9480     3.7995    -3.6569 H             1 Compound
      70 H           -0.9803     6.1431    -4.0756 H             1 Compound
      71 H            0.0973     5.9231    -2.6485 H             1 Compound
      72 H            2.0955     6.0883    -4.2870 H             1 Compound
      73 H            0.9048     6.2730    -5.6298 H             1 Compound
      74 H            1.2926     8.1880    -3.2471 H             1 Compound
      75 H            0.0419     8.3781    -4.5410 H             1 Compound
      76 H            1.8123     8.4973    -6.2865 H             1 Compound
      77 H            3.0936     8.2756    -5.0326 H             1 Compound
      78 H            2.3982    10.4002    -3.9285 H             1 Compound
      79 H            2.8386    10.6619    -5.6590 H             1 Compound
      80 H            1.1005    10.6296    -5.1725 H             1 Compound
      81 C           -0.7113    -1.8215    -2.5056 C             1 Compound
      82 C           -0.8332    -3.3741    -2.1962 C             1 Compound
      83 C           -1.1387    -3.8454    -0.7474 C             1 Compound
      84 C            0.0467    -4.3123     0.1288 C             1 Compound
      85 C            1.0111    -3.1982     0.4915 C             1 Compound
      86 C            2.0769    -3.5987     1.5221 C             1 Compound
      87 C            3.0890    -4.6385     1.0189 C             1 Compound
      88 C            4.1350    -4.9137     2.1145 C             1 Compound
      89 C            5.2502    -5.8789     1.6849 C             1 Compound
      90 C            4.7491    -7.2901     1.3827 C             1 Compound
      91 C            0.1803    -4.3054    -2.9413 C             1 Compound
      92 C            0.3118    -4.1265    -4.4820 C             1 Compound
      93 C           -0.9617    -4.3080    -5.3309 C             1 Compound
      94 C           -0.7532    -3.8532    -6.7983 C             1 Compound
      95 C            0.3167    -4.6383    -7.5782 C             1 Compound
      96 C            0.5028    -4.0586    -8.9927 C             1 Compound
      97 C            1.5520    -4.8475    -9.7869 C             1 Compound
      98 C            1.7831    -4.2391   -11.1687 C             1 Compound
      99 H           -1.7440    -1.5880    -2.8519 H             1 Compound
     100 H           -0.1782    -1.7729    -3.4242 H             1 Compound
     101 H           -1.7848    -3.6372    -2.7136 H             1 Compound
     102 H           -1.7510    -4.7719    -0.8455 H             1 Compound
     103 H           -1.7792    -3.1046    -0.2257 H             1 Compound
     104 H            0.5888    -5.1410    -0.3733 H             1 Compound
     105 H           -0.3840    -4.7189     1.0702 H             1 Compound
     106 H            0.4048    -2.4064     0.9660 H             1 Compound
     107 H            1.5014    -2.8235    -0.4272 H             1 Compound
     108 H            2.6364    -2.6760     1.7907 H             1 Compound
     109 H            1.5729    -3.9756     2.4392 H             1 Compound
     110 H            2.5613    -5.5782     0.7587 H             1 Compound
     111 H            3.5990    -4.2430     0.1131 H             1 Compound
     112 H            3.6317    -5.3144     3.0221 H             1 Compound
     113 H            4.6202    -3.9503     2.3864 H             1 Compound
     114 H            5.9806    -5.9492     2.5207 H             1 Compound
     115 H            5.7800    -5.4719     0.7968 H             1 Compound
     116 H            4.0586    -7.2920     0.5154 H             1 Compound
     117 H            4.2321    -7.7132     2.2702 H             1 Compound
     118 H            5.6147    -7.9401     1.1345 H             1 Compound
     119 H           -0.1153    -5.3629    -2.7641 H             1 Compound
     120 H            1.1890    -4.1510    -2.5036 H             1 Compound
     121 H            1.0786    -4.8457    -4.8373 H             1 Compound
     122 H            0.6887    -3.1277    -4.6977 H             1 Compound
     123 H           -1.3059    -5.3630    -5.2849 H             1 Compound
     124 H           -1.7644    -3.6560    -4.9307 H             1 Compound
     125 H           -1.7226    -3.9460    -7.3373 H             1 Compound
     126 H           -0.4794    -2.7762    -6.7947 H             1 Compound
     127 H            1.2953    -4.5709    -7.0585 H             1 Compound
     128 H            0.0118    -5.7049    -7.6423 H             1 Compound
     129 H            0.8333    -2.9996    -8.9066 H             1 Compound
     130 H           -0.4642    -4.0851    -9.5421 H             1 Compound
     131 H            1.2133    -5.8993    -9.9079 H             1 Compound
     132 H            2.5186    -4.8460    -9.2366 H             1 Compound
     133 H            2.1573    -3.1974   -11.0749 H             1 Compound
     134 H            2.5396    -4.8353   -11.7146 H             1 Compound
     135 H            0.8402    -4.2365   -11.7570 H             1 Compound
@<TRIPOS>BOND
       1        2        1 1
       2        8        1 1
       3       26        1 1
       4       81        1 1
       5        3        2 1
       6        6        2 1
       7        4        3 1
       8        7        3 1
       9        5        4 1
      10        6        5 1
      11       12        5 1
      12       13        6 1
      13        8        7 1
      14       11        7 1
      15        9        8 1
      16       10        9 1
      17       14        9 1
      18       11       10 1
      19       23       10 1
      20       16       15 1
      21       19       15 1
      22       23       15 1
      23       17       16 1
      24       18       17 1
      25       19       18 1
      26       20       19 1
      27       21       20 1
      28       24       20 1
      29       22       21 1
      30       23       22 1
      31       25       22 1
      32       27       26 1
      33       44       26 1
      34       45       26 1
      35       28       27 1
      36       36       27 1
      37       46       27 1
      38       29       28 1
      39       47       28 1
      40       48       28 1
      41       30       29 1
      42       49       29 1
      43       50       29 1
      44       31       30 1
      45       51       30 1
      46       52       30 1
      47       32       31 1
      48       53       31 1
      49       54       31 1
      50       33       32 1
      51       55       32 1
      52       56       32 1
      53       34       33 1
      54       57       33 1
      55       58       33 1
      56       35       34 1
      57       59       34 1
      58       60       34 1
      59       61       35 1
      60       62       35 1
      61       63       35 1
      62       37       36 1
      63       64       36 1
      64       65       36 1
      65       38       37 1
      66       66       37 1
      67       67       37 1
      68       39       38 1
      69       68       38 1
      70       69       38 1
      71       40       39 1
      72       70       39 1
      73       71       39 1
      74       41       40 1
      75       72       40 1
      76       73       40 1
      77       42       41 1
      78       74       41 1
      79       75       41 1
      80       43       42 1
      81       76       42 1
      82       77       42 1
      83       78       43 1
      84       79       43 1
      85       80       43 1
      86       82       81 1
      87       99       81 1
      88      100       81 1
      89       83       82 1
      90       91       82 1
      91      101       82 1
      92       84       83 1
      93      102       83 1
      94      103       83 1
      95       85       84 1
      96      104       84 1
      97      105       84 1
      98       86       85 1
      99      106       85 1
     100      107       85 1
     101       87       86 1
     102      108       86 1
     103      109       86 1
     104       88       87 1
     105      110       87 1
     106      111       87 1
     107       89       88 1
     108      112       88 1
     109      113       88 1
     110       90       89 1
     111      114       89 1
     112      115       89 1
     113      116       90 1
     114      117       90 1
     115      118       90 1
     116       92       91 1
     117      119       91 1
     118      120       91 1
     119       93       92 1
     120      121       92 1
     121      122       92 1
     122       94       93 1
     123      123       93 1
     124      124       93 1
     125       95       94 1
     126      125       94 1
     127      126       94 1
     128       96       95 1
     129      127       95 1
     130      128       95 1
     131       97       96 1
     132      129       96 1
     133      130       96 1
     134       98       97 1
     135      131       97 1
     136      132       97 1
     137      133       98 1
     138      134       98 1
     139      135       98 1
@<TRIPOS>SUBSTRUCTURE
       1 Compound        1 RESIDUE    0 **** ROOT      0
