@<TRIPOS>MOLECULE
RES
147 151 1 0 1
SMALL
NO_CHARGES
@<TRIPOS>CRYSIN
   23.0509    20.6535    19.0937    90.0000    90.0000    90.0000 1 1
@<TRIPOS>ATOM
       1 C0          10.1587     9.4980     8.7322 C0            1 RES     
       2 C1           9.1418     9.2070     9.8578 C1            1 RES     
       3 C1           9.7005     9.2883    11.0933 C1            1 RES     
       4 S2           8.6479     8.8882    12.3320 S2            1 RES     
       5 C1           7.3904     8.5422    11.2412 C1            1 RES     
       6 C1           7.8175     8.7428     9.9240 C1            1 RES     
       7 C1          11.0728     9.5882    10.9533 C1            1 RES     
       8 C1          11.3893     9.6295     9.6308 C1            1 RES     
       9 C1          12.7546     9.7786     9.4187 C1            1 RES     
      10 C1          13.4368     9.8832    10.6426 C1            1 RES     
      11 S2          12.3786     9.7762    11.9663 S2            1 RES     
      12 H3           7.1893     8.5042     9.0869 H3            1 RES     
      13 H3          13.2255     9.8047     8.4433 H3            1 RES     
      14 N4          16.8598    11.1173    11.5428 N4            1 RES     
      15 C1          15.5093    11.0917    11.3437 C1            1 RES     
      16 C1          14.8832     9.9474    10.8199 C1            1 RES     
      17 C1          15.6772     8.8357    10.5326 C1            1 RES     
      18 N4          15.1924     7.6517    10.0781 N4            1 RES     
      19 S2          16.5580     6.7249     9.9886 S2            1 RES     
      20 N4          17.7602     7.7427    10.4957 N4            1 RES     
      21 C1          17.0745     8.8807    10.7667 C1            1 RES     
      22 C1          17.6536    10.0458    11.2626 C1            1 RES     
      23 H5          14.9186    11.9709    11.5860 H5            1 RES     
      24 C0          10.0208    10.8110     7.8838 C0            1 RES     
      25 C0          10.2874    12.3126     8.2788 C0            1 RES     
      26 C0           9.8416    13.1495     7.0285 C0            1 RES     
      27 C0          10.0572    14.6664     7.0980 C0            1 RES     
      28 C0           9.5353    15.3915     5.8352 C0            1 RES     
      29 C0          10.2280    15.0130     4.5075 C0            1 RES     
      30 C0          11.7582    15.1761     4.5056 C0            1 RES     
      31 C0          12.2126    16.6070     4.8442 C0            1 RES     
      32 C0          13.7401    16.7537     4.8966 C0            1 RES     
      33 C0          14.4133    16.5720     3.5257 C0            1 RES     
      34 C0          15.9272    16.8339     3.5685 C0            1 RES     
      35 C0          16.6909    15.8160     4.4164 C0            1 RES     
      36 C0           9.6901    12.8797     9.6080 C0            1 RES     
      37 C0           8.1417    12.9799     9.7664 C0            1 RES     
      38 C0           7.7119    12.1449    10.9764 C0            1 RES     
      39 C0           6.2282    11.8258    11.1364 C0            1 RES     
      40 C0           5.3579    12.9283    11.7217 C0            1 RES     
      41 C0           3.9203    12.3798    11.8389 C0            1 RES     
      42 C0           2.9544    13.3002    12.5886 C0            1 RES     
      43 C0           3.2929    13.4082    14.0769 C0            1 RES     
      44 H6           9.0309    10.8174     7.5046 H6            1 RES     
      45 H6          10.7064    10.6515     7.0211 H6            1 RES     
      46 H6          11.3887    12.4184     8.3993 H6            1 RES     
      47 H6           8.7584    12.9810     6.8420 H6            1 RES     
      48 H6          10.3975    12.7636     6.1473 H6            1 RES     
      49 H6          11.1304    14.8917     7.2633 H6            1 RES     
      50 H6           9.4794    15.0785     7.9498 H6            1 RES     
      51 H6           9.6420    16.4842     5.9961 H6            1 RES     
      52 H6           8.4460    15.1949     5.7230 H6            1 RES     
      53 H6           9.7958    15.6459     3.7006 H6            1 RES     
      54 H6           9.9920    13.9585     4.2494 H6            1 RES     
      55 H6          12.2030    14.4656     5.2339 H6            1 RES     
      56 H6          12.1185    14.8941     3.4945 H6            1 RES     
      57 H6          11.8421    16.8704     5.8558 H6            1 RES     
      58 H6          11.7847    17.3303     4.1159 H6            1 RES     
      59 H6          13.9660    17.7801     5.2595 H6            1 RES     
      60 H6          14.1398    16.0276     5.6353 H6            1 RES     
      61 H6          14.2383    15.5505     3.1290 H6            1 RES     
      62 H6          13.9633    17.3042     2.8203 H6            1 RES     
      63 H6          16.1218    17.8595     3.9514 H6            1 RES     
      64 H6          16.3176    16.7735     2.5297 H6            1 RES     
      65 H6          16.3831    15.8637     5.4804 H6            1 RES     
      66 H6          16.5196    14.7893     4.0287 H6            1 RES     
      67 H6          17.7775    16.0378     4.3664 H6            1 RES     
      68 H6          10.0923    13.9062     9.7456 H6            1 RES     
      69 H6          10.1470    12.3278    10.4572 H6            1 RES     
      70 H6           7.8301    14.0338     9.9433 H6            1 RES     
      71 H6           7.6403    12.6215     8.8445 H6            1 RES     
      72 H6           8.1528    12.5186    11.9245 H6            1 RES     
      73 H6           8.1433    11.1868    10.7783 H6            1 RES     
      74 H6           5.8320    11.4789    10.1789 H6            1 RES     
      75 H6           6.1669    10.9694    11.8459 H6            1 RES     
      76 H6           5.7702    13.1751    12.7230 H6            1 RES     
      77 H6           5.3724    13.8383    11.0854 H6            1 RES     
      78 H6           3.5312    12.2133    10.8088 H6            1 RES     
      79 H6           3.9203    11.3956    12.3604 H6            1 RES     
      80 H6           1.9372    12.8569    12.5116 H6            1 RES     
      81 H6           2.9363    14.3055    12.1176 H6            1 RES     
      82 H6           4.2823    13.8806    14.2356 H6            1 RES     
      83 H6           2.5272    14.0273    14.5869 H6            1 RES     
      84 H6           3.2940    12.3976    14.5432 H6            1 RES     
      85 C0          10.1559     8.2015     7.8296 C0            1 RES     
      86 C0           9.6151     8.1128     6.3310 C0            1 RES     
      87 C0           9.3054     6.6016     6.0613 C0            1 RES     
      88 C0           9.0218     6.2315     4.5914 C0            1 RES     
      89 C0           8.6994     4.7422     4.3764 C0            1 RES     
      90 C0           9.8027     3.7526     4.7916 C0            1 RES     
      91 C0          11.1841     4.0150     4.1691 C0            1 RES     
      92 C0          11.1713     4.0202     2.6303 C0            1 RES     
      93 C0          12.5582     4.2888     2.0240 C0            1 RES     
      94 C0          13.5614     3.1540     2.2977 C0            1 RES     
      95 C0          14.9090     3.3602     1.5887 C0            1 RES     
      96 C0          15.6826     4.5738     2.1043 C0            1 RES     
      97 C0           8.4976     9.0475     5.7029 C0            1 RES     
      98 C0           7.0144     8.9823     6.1653 C0            1 RES     
      99 C0           6.6144    10.1954     7.0242 C0            1 RES     
     100 C0           5.2006    10.1986     7.5818 C0            1 RES     
     101 C0           4.0704    10.4627     6.5969 C0            1 RES     
     102 C0           2.7730    10.5889     7.4214 C0            1 RES     
     103 C0           1.5450    11.0095     6.6119 C0            1 RES     
     104 C0           1.6541    12.4446     6.0945 C0            1 RES     
     105 H6           9.7017     7.3731     8.4216 H6            1 RES     
     106 H6          11.2089     7.8460     7.7603 H6            1 RES     
     107 H6          10.5037     8.3830     5.7150 H6            1 RES     
     108 H6           8.4332     6.2942     6.6778 H6            1 RES     
     109 H6          10.1851     6.0104     6.3952 H6            1 RES     
     110 H6           9.8869     6.5317     3.9637 H6            1 RES     
     111 H6           8.1220     6.7641     4.2272 H6            1 RES     
     112 H6           8.4734     4.5977     3.2983 H6            1 RES     
     113 H6           7.7734     4.4840     4.9358 H6            1 RES     
     114 H6           9.4651     2.7303     4.5132 H6            1 RES     
     115 H6           9.9138     3.7702     5.8968 H6            1 RES     
     116 H6          11.5778     4.9874     4.5348 H6            1 RES     
     117 H6          11.8574     3.2158     4.5406 H6            1 RES     
     118 H6          10.5056     4.8363     2.2796 H6            1 RES     
     119 H6          10.7730     3.0567     2.2450 H6            1 RES     
     120 H6          12.4318     4.3814     0.9233 H6            1 RES     
     121 H6          12.9380     5.2573     2.4132 H6            1 RES     
     122 H6          13.7474     3.0407     3.3856 H6            1 RES     
     123 H6          13.1224     2.2060     1.9170 H6            1 RES     
     124 H6          14.7473     3.4580     0.4932 H6            1 RES     
     125 H6          15.5324     2.4576     1.7670 H6            1 RES     
     126 H6          15.1334     5.5163     1.9064 H6            1 RES     
     127 H6          15.8674     4.4761     3.1953 H6            1 RES     
     128 H6          16.6612     4.6328     1.5831 H6            1 RES     
     129 H6           8.4805     8.7793     4.6306 H6            1 RES     
     130 H6           8.8278    10.0952     5.5725 H6            1 RES     
     131 H6           6.3740     9.0640     5.2595 H6            1 RES     
     132 H6           6.7904     8.0074     6.6437 H6            1 RES     
     133 H6           6.8034    11.1408     6.4667 H6            1 RES     
     134 H6           7.2124    10.2166     7.9284 H6            1 RES     
     135 H6           5.0207     9.2674     8.1618 H6            1 RES     
     136 H6           5.1704    11.0624     8.2662 H6            1 RES     
     137 H6           4.2939    11.4157     6.0724 H6            1 RES     
     138 H6           3.9882     9.6448     5.8511 H6            1 RES     
     139 H6           2.5695     9.6038     7.8961 H6            1 RES     
     140 H6           2.9057    11.3347     8.2388 H6            1 RES     
     141 H6           0.6685    10.9675     7.2952 H6            1 RES     
     142 H6           1.3778    10.3015     5.7761 H6            1 RES     
     143 H6           2.4871    12.5527     5.3718 H6            1 RES     
     144 H6           0.7107    12.7213     5.5807 H6            1 RES     
     145 H6           1.8125    13.1482     6.9411 H6            1 RES     
     146 H5           6.4099     8.1788    11.5199 H5            1 RES     
     147 H5          18.7194    10.0969    11.4468 H5            1 RES     
@<TRIPOS>BOND
       1        1        2 1
       2        1        8 1
       3        1       24 1
       4        1       85 1
       5        2        3 1
       6        2        6 1
       7        3        4 1
       8        3        7 1
       9        4        5 1
      10        5        6 1
      11        5      146 1
      12        6       12 1
      13        7        8 1
      14        7       11 1
      15        8        9 1
      16        9       10 1
      17        9       13 1
      18       10       11 1
      19       10       16 1
      20       14       15 1
      21       14       22 1
      22       15       16 1
      23       15       23 1
      24       16       17 1
      25       17       18 1
      26       17       21 1
      27       18       19 1
      28       19       20 1
      29       20       21 1
      30       21       22 1
      31       22      147 1
      32       24       25 1
      33       24       44 1
      34       24       45 1
      35       25       26 1
      36       25       36 1
      37       25       46 1
      38       26       27 1
      39       26       47 1
      40       26       48 1
      41       27       28 1
      42       27       49 1
      43       27       50 1
      44       28       29 1
      45       28       51 1
      46       28       52 1
      47       29       30 1
      48       29       53 1
      49       29       54 1
      50       30       31 1
      51       30       55 1
      52       30       56 1
      53       31       32 1
      54       31       57 1
      55       31       58 1
      56       32       33 1
      57       32       59 1
      58       32       60 1
      59       33       34 1
      60       33       61 1
      61       33       62 1
      62       34       35 1
      63       34       63 1
      64       34       64 1
      65       35       65 1
      66       35       66 1
      67       35       67 1
      68       36       37 1
      69       36       68 1
      70       36       69 1
      71       37       38 1
      72       37       70 1
      73       37       71 1
      74       38       39 1
      75       38       72 1
      76       38       73 1
      77       39       40 1
      78       39       74 1
      79       39       75 1
      80       40       41 1
      81       40       76 1
      82       40       77 1
      83       41       42 1
      84       41       78 1
      85       41       79 1
      86       42       43 1
      87       42       80 1
      88       42       81 1
      89       43       82 1
      90       43       83 1
      91       43       84 1
      92       85       86 1
      93       85      105 1
      94       85      106 1
      95       86       87 1
      96       86       97 1
      97       86      107 1
      98       87       88 1
      99       87      108 1
     100       87      109 1
     101       88       89 1
     102       88      110 1
     103       88      111 1
     104       89       90 1
     105       89      112 1
     106       89      113 1
     107       90       91 1
     108       90      114 1
     109       90      115 1
     110       91       92 1
     111       91      116 1
     112       91      117 1
     113       92       93 1
     114       92      118 1
     115       92      119 1
     116       93       94 1
     117       93      120 1
     118       93      121 1
     119       94       95 1
     120       94      122 1
     121       94      123 1
     122       95       96 1
     123       95      124 1
     124       95      125 1
     125       96      126 1
     126       96      127 1
     127       96      128 1
     128       97       98 1
     129       97      129 1
     130       97      130 1
     131       98       99 1
     132       98      131 1
     133       98      132 1
     134       99      100 1
     135       99      133 1
     136       99      134 1
     137      100      101 1
     138      100      135 1
     139      100      136 1
     140      101      102 1
     141      101      137 1
     142      101      138 1
     143      102      103 1
     144      102      139 1
     145      102      140 1
     146      103      104 1
     147      103      141 1
     148      103      142 1
     149      104      143 1
     150      104      144 1
     151      104      145 1
@<TRIPOS>SUBSTRUCTURE
       1 RES             1 RESIDUE    0 **** ROOT      0
