@<TRIPOS>MOLECULE
Compound
234 243 1 0 1
SMALL
NO_CHARGES
@<TRIPOS>CRYSIN
   34.6650    20.7880    16.1150    90.0000    90.0000    90.0000  1  1
@<TRIPOS>ATOM
       1 C0          -9.9040    -0.8110     0.5350 C0            1 Compound
       2 C1         -10.8130     0.4180     0.7560 C1            1 Compound
       3 C2         -10.6250     0.8170     2.2290 C2            1 Compound
       4 S3         -10.9380     2.6010     2.4420 S3            1 Compound
       5 C4         -10.5430     2.8240     0.7230 C4            1 Compound
       6 C5         -10.4960     1.6680    -0.0140 C5            1 Compound
       7 C6          -9.2140     0.3740     2.6300 C6            1 Compound
       8 C7          -8.6920    -0.2830     1.4050 C7            1 Compound
       9 C8          -7.3180    -0.7190     1.8230 C8            1 Compound
      10 C9          -6.5830     0.3520     2.6720 C9            1 Compound
      11 S10         -7.8960     1.6110     3.0130 S10           1 Compound
      12 H11        -10.4730     3.8020     0.2680 H11           1 Compound
      13 H12        -10.4210     1.7170    -1.0860 H12           1 Compound
      14 H13         -6.9670    -1.7290     1.6720 H13           1 Compound
      15 C0           1.4080     0.0990    -1.0180 C0            1 Compound
      16 C7           0.8170     1.6290    -0.8800 C7            1 Compound
      17 C14          1.5500     2.3300     0.2630 C14           1 Compound
      18 S15          0.6110     2.1750     1.8500 S15           1 Compound
      19 C16         -0.9440     2.3860     0.9230 C16           1 Compound
      20 C8          -0.6190     2.0330    -0.5230 C8            1 Compound
      21 C6           2.9190     1.7310     0.2040 C6            1 Compound
      22 C17          2.8730     0.5490    -0.6970 C17           1 Compound
      23 C8           4.1830    -0.1480    -0.5490 C8            1 Compound
      24 C16          5.0310     0.4700     0.5490 C16           1 Compound
      25 S10          3.8590     1.3010     1.6890 S10           1 Compound
      26 H18         -1.1710     2.5620    -1.2830 H18           1 Compound
      27 H13          4.6220    -0.7190    -1.3570 H13           1 Compound
      28 C19          8.4880     1.6530    -0.8290 C19           1 Compound
      29 N20          9.5560     0.8730    -1.4100 N20           1 Compound
      30 S21          9.4830    -0.6910    -0.5720 S21           1 Compound
      31 N22          7.8450    -0.4180     0.0710 N22           1 Compound
      32 C23          7.3200     0.7180    -0.6560 C23           1 Compound
      33 C24          6.1940     1.4340     0.1100 C24           1 Compound
      34 C25          5.7920     2.7220    -0.6730 C25           1 Compound
      35 F26          4.9270     3.5090     0.0620 F26           1 Compound
      36 C27          7.0110     3.6070    -0.9820 C27           1 Compound
      37 C28          8.1110     2.8350    -1.6990 C28           1 Compound
      38 H29          6.7100     4.4920    -1.5860 H29           1 Compound
      39 H30          8.9920     3.5020    -1.8270 H30           1 Compound
      40 C31         -4.8310     2.3950     1.9970 C31           1 Compound
      41 N22         -5.8780     3.1680     1.3710 N22           1 Compound
      42 S21         -5.1120     4.6880     0.8610 S21           1 Compound
      43 N22         -3.4550     4.0580     1.0020 N22           1 Compound
      44 C32         -3.5890     2.6240     1.1180 C32           1 Compound
      45 C24         -2.3040     1.9760     1.6780 C24           1 Compound
      46 C33         -2.5930     0.4740     1.9190 C33           1 Compound
      47 F26         -1.5420    -0.0980     2.6120 F26           1 Compound
      48 C34         -3.9250     0.1980     2.7030 C34           1 Compound
      49 C35         -5.1770     0.8930     2.0910 C35           1 Compound
      50 H36         -4.0800    -0.9000     2.7740 H36           1 Compound
      51 C37        -18.4960    -6.0700     1.5220 C37           1 Compound
      52 C38        -19.1780    -4.7970     1.0070 C38           1 Compound
      53 C39        -18.3140    -3.9370     0.0520 C39           1 Compound
      54 C40        -16.9880    -3.5260     0.7090 C40           1 Compound
      55 C41        -16.0950    -2.4730    -0.0370 C41           1 Compound
      56 C40        -14.7000    -2.4800     0.8350 C40           1 Compound
      57 C42        -13.2030    -2.3490     0.2700 C42           1 Compound
      58 C43        -12.1260    -2.3150     1.4070 C43           1 Compound
      59 C44        -10.5670    -2.1510     1.1180 C44           1 Compound
      60 C40        -16.9220    -1.0580    -0.1490 C40           1 Compound
      61 C45        -17.8770    -0.5360    -1.3460 C45           1 Compound
      62 C46        -17.9490     1.0470    -1.6000 C46           1 Compound
      63 C47        -17.1500     1.8840    -2.6910 C47           1 Compound
      64 C48        -17.6980     2.0380    -4.1250 C48           1 Compound
      65 C49        -16.7460     2.9320    -4.9570 C49           1 Compound
      66 H50        -19.2010    -6.6300     2.1730 H50           1 Compound
      67 H50        -17.6080    -5.8290     2.1440 H50           1 Compound
      68 H50        -18.1920    -6.7240     0.6780 H50           1 Compound
      69 H51        -20.1090    -5.0870     0.4760 H51           1 Compound
      70 H51        -19.4640    -4.1830     1.8900 H51           1 Compound
      71 H52        -18.1000    -4.4950    -0.8860 H52           1 Compound
      72 H53        -18.9170    -3.0430    -0.2040 H53           1 Compound
      73 H54        -16.4180    -4.4730     0.8180 H54           1 Compound
      74 H54        -17.1980    -3.1330     1.7310 H54           1 Compound
      75 H55        -15.8880    -2.8970    -1.0430 H55           1 Compound
      76 H54        -14.5960    -3.4910     1.2800 H54           1 Compound
      77 H54        -14.8510    -1.8160     1.7100 H54           1 Compound
      78 H52        -12.9980    -3.1780    -0.4430 H52           1 Compound
      79 H52        -13.0040    -1.4430    -0.2430 H52           1 Compound
      80 H56        -12.4070    -1.5040     2.1090 H56           1 Compound
      81 H56        -12.2370    -3.2770     1.9510 H56           1 Compound
      82 H57        -10.1930    -3.0320     0.5500 H57           1 Compound
      83 H57        -10.1240    -2.2790     2.1270 H57           1 Compound
      84 H54        -17.6990    -1.2300     0.6260 H54           1 Compound
      85 H54        -16.7270    -0.2830     0.5910 H54           1 Compound
      86 H52        -18.9060    -0.7440    -0.9750 H52           1 Compound
      87 H52        -17.8880    -1.1440    -2.2570 H52           1 Compound
      88 H52        -19.0050     1.3300    -1.7880 H52           1 Compound
      89 H52        -17.7020     1.4980    -0.6180 H52           1 Compound
      90 H52        -16.1230     1.5880    -2.8260 H52           1 Compound
      91 H52        -17.1190     2.9300    -2.3030 H52           1 Compound
      92 H51        -17.7920     1.0780    -4.6500 H51           1 Compound
      93 H51        -18.6990     2.5070    -4.1030 H51           1 Compound
      94 H50        -15.7200     2.4990    -5.0020 H50           1 Compound
      95 H50        -16.6670     3.9500    -4.5150 H50           1 Compound
      96 H50        -17.1120     3.0370    -6.0010 H50           1 Compound
      97 C37        -17.1540    -1.6180    -6.5800 C37           1 Compound
      98 C58        -16.9590    -2.3600    -5.2560 C58           1 Compound
      99 C59        -16.1950    -1.5220    -4.2080 C59           1 Compound
     100 C60        -14.7030    -1.3070    -4.4870 C60           1 Compound
     101 C61        -13.9020    -0.3360    -3.5140 C61           1 Compound
     102 C40        -12.4780    -0.9730    -3.4460 C40           1 Compound
     103 C42        -11.4690    -0.3880    -2.4550 C42           1 Compound
     104 C62        -10.4150    -1.4370    -2.0820 C62           1 Compound
     105 C44         -9.4420    -1.0230    -0.9600 C44           1 Compound
     106 C40        -14.4820    -0.2090    -2.0680 C40           1 Compound
     107 C45        -14.0870     1.0750    -1.1830 C45           1 Compound
     108 C46        -14.0990     0.8380     0.3490 C46           1 Compound
     109 C47        -14.2870     2.0150     1.3130 C47           1 Compound
     110 C48        -15.7230     2.5560     1.3350 C48           1 Compound
     111 C49        -15.9330     3.5080     2.5110 C49           1 Compound
     112 H50        -17.7470    -2.2530    -7.2730 H50           1 Compound
     113 H50        -16.1840    -1.3850    -7.0610 H50           1 Compound
     114 H50        -17.7170    -0.6760    -6.4080 H50           1 Compound
     115 H63        -17.9690    -2.5800    -4.8540 H63           1 Compound
     116 H63        -16.4380    -3.3260    -5.4300 H63           1 Compound
     117 H52        -16.6980    -0.5650    -4.0900 H52           1 Compound
     118 H52        -16.2490    -2.0900    -3.2570 H52           1 Compound
     119 H64        -14.5290    -0.9510    -5.5220 H64           1 Compound
     120 H64        -14.3110    -2.3480    -4.4460 H64           1 Compound
     121 H55        -13.9350     0.6870    -3.9470 H55           1 Compound
     122 H64        -12.0230    -1.0480    -4.4570 H64           1 Compound
     123 H64        -12.6600    -2.0160    -3.0910 H64           1 Compound
     124 H65        -11.0420     0.5510    -2.8630 H65           1 Compound
     125 H65        -11.9460    -0.1940    -1.5100 H65           1 Compound
     126 H66        -10.9090    -2.3780    -1.7600 H66           1 Compound
     127 H66         -9.8320    -1.6590    -3.0050 H66           1 Compound
     128 H57         -8.9120    -0.1210    -1.3180 H57           1 Compound
     129 H57         -8.7450    -1.8770    -0.9200 H57           1 Compound
     130 H54        -15.5540    -0.2040    -2.1000 H54           1 Compound
     131 H54        -14.3490    -1.1870    -1.6350 H54           1 Compound
     132 H52        -14.7740     1.9040    -1.3780 H52           1 Compound
     133 H52        -13.1120     1.5230    -1.4430 H52           1 Compound
     134 H52        -14.8210     0.1090     0.6230 H52           1 Compound
     135 H52        -13.1680     0.3800     0.6350 H52           1 Compound
     136 H52        -13.5520     2.8200     1.1130 H52           1 Compound
     137 H52        -14.0870     1.6050     2.3320 H52           1 Compound
     138 H51        -15.9530     3.0670     0.3780 H51           1 Compound
     139 H51        -16.4390     1.7230     1.4830 H51           1 Compound
     140 H50        -15.2390     4.3700     2.4490 H50           1 Compound
     141 H50        -15.7610     2.9690     3.4700 H50           1 Compound
     142 H50        -16.9800     3.8760     2.5100 H50           1 Compound
     143 C37         -5.2570    -2.0580    -6.8060 C37           1 Compound
     144 C58         -5.7650    -0.7290    -6.2320 C58           1 Compound
     145 C59         -4.6590     0.2100    -5.6860 C59           1 Compound
     146 C60         -3.8430    -0.5160    -4.6270 C60           1 Compound
     147 C41         -2.8930     0.2590    -3.6570 C41           1 Compound
     148 C40         -2.4800    -0.8220    -2.6110 C40           1 Compound
     149 C42         -1.5040    -0.3920    -1.4660 C42           1 Compound
     150 C43         -0.7350    -1.2740    -0.3600 C43           1 Compound
     151 C67          0.6800    -0.7520     0.0680 C67           1 Compound
     152 C40         -3.5550     1.4560    -2.9560 C40           1 Compound
     153 C45         -3.4580     2.8170    -3.6450 C45           1 Compound
     154 C46         -3.9250     3.8880    -2.6340 C46           1 Compound
     155 C47         -3.8850     5.3210    -3.1460 C47           1 Compound
     156 C48         -4.9290     5.5680    -4.2400 C48           1 Compound
     157 C49         -4.9670     7.0410    -4.6250 C49           1 Compound
     158 H50         -6.1200    -2.6550    -7.1680 H50           1 Compound
     159 H50         -4.7540    -2.6740    -6.0280 H50           1 Compound
     160 H50         -4.5570    -1.8770    -7.6450 H50           1 Compound
     161 H63         -6.3400    -0.1900    -7.0110 H63           1 Compound
     162 H63         -6.4690    -0.9750    -5.4040 H63           1 Compound
     163 H52         -3.9910     0.5840    -6.4890 H52           1 Compound
     164 H52         -5.1990     1.0600    -5.2250 H52           1 Compound
     165 H64         -3.2460    -1.3070    -5.1320 H64           1 Compound
     166 H64         -4.5890    -1.0360    -4.0070 H64           1 Compound
     167 H55         -1.9740     0.6140    -4.1760 H55           1 Compound
     168 H54         -2.0870    -1.5740    -3.2770 H54           1 Compound
     169 H54         -3.3580    -1.2450    -2.1900 H54           1 Compound
     170 H52         -0.7940     0.1310    -2.0880 H52           1 Compound
     171 H52         -2.0750     0.2840    -0.8390 H52           1 Compound
     172 H56         -1.3870    -1.4990     0.5060 H56           1 Compound
     173 H56         -0.4690    -2.3090    -0.5790 H56           1 Compound
     174 H57          1.3220    -1.6170     0.3560 H57           1 Compound
     175 H57          0.5870    -0.2010     1.0050 H57           1 Compound
     176 H54         -4.5970     1.2090    -2.7670 H54           1 Compound
     177 H54         -3.0520     1.6270    -2.0020 H54           1 Compound
     178 H52         -4.0620     2.8310    -4.5710 H52           1 Compound
     179 H52         -2.3970     3.0310    -3.9080 H52           1 Compound
     180 H52         -4.9520     3.6590    -2.2780 H52           1 Compound
     181 H52         -3.2450     3.8500    -1.7540 H52           1 Compound
     182 H52         -2.8620     5.5740    -3.5110 H52           1 Compound
     183 H52         -4.1180     5.9850    -2.2850 H52           1 Compound
     184 H51         -4.6960     4.9610    -5.1390 H51           1 Compound
     185 H51         -5.9320     5.2790    -3.8580 H51           1 Compound
     186 H50         -3.9820     7.3610    -5.0210 H50           1 Compound
     187 H50         -5.2260     7.6590    -3.7380 H50           1 Compound
     188 H50         -5.7410     7.1970    -5.4040 H50           1 Compound
     189 C37         -5.3040    -7.0990    -5.1830 C37           1 Compound
     190 C58         -5.0810    -7.1760    -3.6740 C58           1 Compound
     191 C59         -4.3210    -5.9740    -3.1210 C59           1 Compound
     192 C60         -2.8040    -5.8310    -3.3380 C60           1 Compound
     193 C61         -2.2240    -4.4160    -2.9480 C61           1 Compound
     194 C40         -0.5980    -4.3710    -2.9830 C40           1 Compound
     195 C68          0.0140    -2.9060    -3.1080 C68           1 Compound
     196 C62          1.4170    -2.3510    -2.6100 C62           1 Compound
     197 C44          1.4990    -0.7210    -2.4640 C44           1 Compound
     198 C69         -2.8030    -3.8820    -1.5580 C69           1 Compound
     199 C45         -4.3150    -3.4510    -1.4810 C45           1 Compound
     200 C46         -4.7060    -2.6920    -0.1970 C46           1 Compound
     201 C47         -4.8620    -1.1560    -0.2530 C47           1 Compound
     202 C48         -5.9460    -0.6340    -1.2060 C48           1 Compound
     203 C49         -6.3620     0.8380    -0.9660 C49           1 Compound
     204 H50         -5.9530    -7.9440    -5.4980 H50           1 Compound
     205 H50         -4.3380    -7.1520    -5.7160 H50           1 Compound
     206 H50         -5.8290    -6.1520    -5.4460 H50           1 Compound
     207 H63         -6.1100    -7.1450    -3.2210 H63           1 Compound
     208 H63         -4.6120    -8.1290    -3.3750 H63           1 Compound
     209 H52         -4.8480    -5.0700    -3.5090 H52           1 Compound
     210 H52         -4.4320    -6.1180    -2.0310 H52           1 Compound
     211 H64         -2.5580    -5.9960    -4.4150 H64           1 Compound
     212 H64         -2.3040    -6.6350    -2.7500 H64           1 Compound
     213 H55         -2.5860    -3.7260    -3.7410 H55           1 Compound
     214 H54         -0.2120    -4.9470    -3.8540 H54           1 Compound
     215 H54         -0.2360    -4.8670    -2.0590 H54           1 Compound
     216 H52         -0.2080    -2.4990    -4.1170 H52           1 Compound
     217 H52         -0.5810    -2.4260    -2.4660 H52           1 Compound
     218 H70          1.7450    -2.8180    -1.6580 H70           1 Compound
     219 H70          2.1310    -2.6800    -3.3910 H70           1 Compound
     220 H71          0.8750    -0.2690    -3.2590 H71           1 Compound
     221 H57          2.4950    -0.4620    -2.8840 H57           1 Compound
     222 H64         -2.5610    -4.5910    -0.7430 H64           1 Compound
     223 H64         -2.2850    -2.9820    -1.3260 H64           1 Compound
     224 H72         -4.9580    -4.3220    -1.4010 H72           1 Compound
     225 H72         -4.6770    -2.9130    -2.3790 H72           1 Compound
     226 H52         -5.7170    -3.0410     0.1000 H52           1 Compound
     227 H52         -4.0220    -2.9770     0.6340 H52           1 Compound
     228 H52         -3.9380    -0.5830    -0.3430 H52           1 Compound
     229 H52         -5.1740    -0.9680     0.7360 H52           1 Compound
     230 H51         -5.6310    -0.7430    -2.2430 H51           1 Compound
     231 H51         -6.8210    -1.2590    -1.0900 H51           1 Compound
     232 H50         -6.8750     0.9800    -0.0080 H50           1 Compound
     233 H50         -5.5060     1.5340    -0.9400 H50           1 Compound
     234 H50         -7.0700     1.1670    -1.7570 H50           1 Compound
@<TRIPOS>BOND
       1        2        1 1
       2        8        1 1
       3       59        1 1
       4      105        1 1
       5        3        2 1
       6        6        2 1
       7        4        3 1
       8        7        3 1
       9        5        4 1
      10        6        5 1
      11       12        5 1
      12       13        6 1
      13        8        7 1
      14       11        7 1
      15        9        8 1
      16       10        9 1
      17       14        9 1
      18       11       10 1
      19       49       10 1
      20       16       15 1
      21       22       15 1
      22      151       15 1
      23      197       15 1
      24       17       16 1
      25       20       16 1
      26       18       17 1
      27       21       17 1
      28       19       18 1
      29       20       19 1
      30       45       19 1
      31       26       20 1
      32       22       21 1
      33       25       21 1
      34       23       22 1
      35       24       23 1
      36       27       23 1
      37       25       24 1
      38       33       24 1
      39       29       28 1
      40       32       28 1
      41       37       28 1
      42       30       29 1
      43       31       30 1
      44       32       31 1
      45       33       32 1
      46       34       33 1
      47       35       34 1
      48       36       34 1
      49       37       36 1
      50       38       36 1
      51       39       37 1
      52       41       40 1
      53       44       40 1
      54       49       40 1
      55       42       41 1
      56       43       42 1
      57       44       43 1
      58       45       44 1
      59       46       45 1
      60       47       46 1
      61       48       46 1
      62       49       48 1
      63       50       48 1
      64       52       51 1
      65       66       51 1
      66       67       51 1
      67       68       51 1
      68       53       52 1
      69       69       52 1
      70       70       52 1
      71       54       53 1
      72       71       53 1
      73       72       53 1
      74       55       54 1
      75       73       54 1
      76       74       54 1
      77       56       55 1
      78       60       55 1
      79       75       55 1
      80       57       56 1
      81       76       56 1
      82       77       56 1
      83       58       57 1
      84       78       57 1
      85       79       57 1
      86       59       58 1
      87       80       58 1
      88       81       58 1
      89       82       59 1
      90       83       59 1
      91       61       60 1
      92       84       60 1
      93       85       60 1
      94       62       61 1
      95       86       61 1
      96       87       61 1
      97       63       62 1
      98       88       62 1
      99       89       62 1
     100       64       63 1
     101       90       63 1
     102       91       63 1
     103       65       64 1
     104       92       64 1
     105       93       64 1
     106       94       65 1
     107       95       65 1
     108       96       65 1
     109       98       97 1
     110      112       97 1
     111      113       97 1
     112      114       97 1
     113       99       98 1
     114      115       98 1
     115      116       98 1
     116      100       99 1
     117      117       99 1
     118      118       99 1
     119      101      100 1
     120      119      100 1
     121      120      100 1
     122      102      101 1
     123      106      101 1
     124      121      101 1
     125      103      102 1
     126      122      102 1
     127      123      102 1
     128      104      103 1
     129      124      103 1
     130      125      103 1
     131      105      104 1
     132      126      104 1
     133      127      104 1
     134      128      105 1
     135      129      105 1
     136      107      106 1
     137      130      106 1
     138      131      106 1
     139      108      107 1
     140      132      107 1
     141      133      107 1
     142      109      108 1
     143      134      108 1
     144      135      108 1
     145      110      109 1
     146      136      109 1
     147      137      109 1
     148      111      110 1
     149      138      110 1
     150      139      110 1
     151      140      111 1
     152      141      111 1
     153      142      111 1
     154      144      143 1
     155      158      143 1
     156      159      143 1
     157      160      143 1
     158      145      144 1
     159      161      144 1
     160      162      144 1
     161      146      145 1
     162      163      145 1
     163      164      145 1
     164      147      146 1
     165      165      146 1
     166      166      146 1
     167      148      147 1
     168      152      147 1
     169      167      147 1
     170      149      148 1
     171      168      148 1
     172      169      148 1
     173      150      149 1
     174      170      149 1
     175      171      149 1
     176      151      150 1
     177      172      150 1
     178      173      150 1
     179      174      151 1
     180      175      151 1
     181      153      152 1
     182      176      152 1
     183      177      152 1
     184      154      153 1
     185      178      153 1
     186      179      153 1
     187      155      154 1
     188      180      154 1
     189      181      154 1
     190      156      155 1
     191      182      155 1
     192      183      155 1
     193      157      156 1
     194      184      156 1
     195      185      156 1
     196      186      157 1
     197      187      157 1
     198      188      157 1
     199      190      189 1
     200      204      189 1
     201      205      189 1
     202      206      189 1
     203      191      190 1
     204      207      190 1
     205      208      190 1
     206      192      191 1
     207      209      191 1
     208      210      191 1
     209      193      192 1
     210      211      192 1
     211      212      192 1
     212      194      193 1
     213      198      193 1
     214      213      193 1
     215      195      194 1
     216      214      194 1
     217      215      194 1
     218      196      195 1
     219      216      195 1
     220      217      195 1
     221      197      196 1
     222      218      196 1
     223      219      196 1
     224      220      197 1
     225      221      197 1
     226      199      198 1
     227      222      198 1
     228      223      198 1
     229      200      199 1
     230      224      199 1
     231      225      199 1
     232      201      200 1
     233      226      200 1
     234      227      200 1
     235      202      201 1
     236      228      201 1
     237      229      201 1
     238      203      202 1
     239      230      202 1
     240      231      202 1
     241      232      203 1
     242      233      203 1
     243      234      203 1
@<TRIPOS>SUBSTRUCTURE
       1 Compound        1 RESIDUE    0 **** ROOT      0
