@<TRIPOS>MOLECULE
RES
148 152 1 0 1
SMALL
NO_CHARGES
@<TRIPOS>CRYSIN
   28.9486    23.9967    22.3621    90.0000    90.0000    90.0000 1 1
@<TRIPOS>ATOM
       1 C0          14.7833    15.1876    14.2983 C0            1 RES     
       2 C0          13.0521    14.6364    13.9513 C0            1 RES     
       3 C0          12.8480    13.3998    14.5503 C0            1 RES     
       4 S1          11.4178    12.5662    14.0905 S1            1 RES     
       5 C0          10.7182    13.5998    12.9962 C0            1 RES     
       6 C0          11.7479    14.7651    13.0352 C0            1 RES     
       7 C0          14.1016    12.7757    14.9753 C0            1 RES     
       8 C0          14.9949    13.6552    14.1156 C0            1 RES     
       9 C0          15.2733    13.0574    12.9252 C0            1 RES     
      10 C0          14.8479    11.7367    12.8043 C0            1 RES     
      11 S1          14.1082    11.0774    14.2735 S1            1 RES     
      12 H2          11.5937    15.5675    12.3238 H2            1 RES     
      13 H2          15.6045    13.5964    12.0527 H2            1 RES     
      14 N3           7.9846    10.8896    11.9305 N3            1 RES     
      15 C0           9.0505    11.5488    12.4098 C0            1 RES     
      16 C0           9.3119    12.9926    12.2714 C0            1 RES     
      17 C0           8.1993    13.5860    11.5005 C0            1 RES     
      18 N3           8.0913    14.9096    11.1608 N3            1 RES     
      19 S1           6.6424    14.9907    10.3426 S1            1 RES     
      20 N3           6.0997    13.4301    10.3407 N3            1 RES     
      21 C0           7.0675    12.7936    11.0139 C0            1 RES     
      22 C0           6.9596    11.4407    11.2239 C0            1 RES     
      23 H4           9.7414    10.9143    12.9190 H4            1 RES     
      24 C5          29.1614    19.1377    26.7032 C5            1 RES     
      25 C5          27.8726    18.9324    25.8574 C5            1 RES     
      26 C5          27.9541    19.5478    24.4219 C5            1 RES     
      27 C5          26.8298    19.1419    23.3497 C5            1 RES     
      28 C5          25.3526    19.7214    23.4407 C5            1 RES     
      29 C5          24.0906    19.1511    22.5138 C5            1 RES     
      30 C5          23.7884    19.4436    20.9148 C5            1 RES     
      31 C5          22.3184    19.1873    19.9910 C5            1 RES     
      32 C5          21.6724    17.8635    19.1306 C5            1 RES     
      33 C5          20.1774    17.3963    18.2414 C5            1 RES     
      34 C5          19.4729    17.5315    16.6104 C5            1 RES     
      35 C5          20.2690    18.8868    16.1599 C5            1 RES     
      36 C5          20.1969    20.2158    17.0417 C5            1 RES     
      37 C5          21.3795    21.2570    16.8280 C5            1 RES     
      38 C5          21.2176    22.6450    17.5584 C5            1 RES     
      39 C5          19.8646    23.3405    17.2924 C5            1 RES     
      40 C5          19.5269    23.5188    15.7923 C5            1 RES     
      41 C5          19.4916    24.9611    15.2737 C5            1 RES     
      42 C5          20.8073    25.7200    15.4075 C5            1 RES     
      43 C5          17.9957    16.7872    15.5311 C5            1 RES     
      44 C0          16.1933    16.0291    15.4403 C0            1 RES     
      45 C5          15.4984    16.8076    16.5867 C5            1 RES     
      46 C5          16.3537    17.0256    17.9270 C5            1 RES     
      47 C5          16.2772    15.8351    18.8983 C5            1 RES     
      48 C5          16.5683    14.4280    18.3275 C5            1 RES     
      49 C5          17.9063    14.2678    17.5732 C5            1 RES     
      50 C5          18.3272    12.8256    17.3227 C5            1 RES     
      51 C5          17.2433    12.0187    16.6071 C5            1 RES     
      52 C5          17.5975    10.5352    16.6003 C5            1 RES     
      53 C5          16.3751     9.7297    16.1815 C5            1 RES     
      54 C5          16.5730     8.2400    16.3438 C5            1 RES     
      55 C5          16.0031    18.3924    18.6080 C5            1 RES     
      56 C5          16.9586    19.0827    19.6555 C5            1 RES     
      57 C5          17.1056    18.5869    21.1199 C5            1 RES     
      58 C5          15.7520    18.4614    21.8309 C5            1 RES     
      59 C5          15.8677    18.2812    23.3614 C5            1 RES     
      60 C5          14.5411    17.7918    23.9832 C5            1 RES     
      61 C5          13.3055    18.6814    23.7322 C5            1 RES     
      62 C5          13.3371    20.0642    24.4095 C5            1 RES     
      63 C5          13.4033    20.0318    25.9493 C5            1 RES     
      64 C5          12.2163    19.3111    26.5946 C5            1 RES     
      65 H6          30.0483    18.6668    26.2209 H6            1 RES     
      66 H6          29.3903    20.2101    26.8809 H6            1 RES     
      67 H6          29.0547    18.6521    27.7029 H6            1 RES     
      68 H6          27.7376    17.8336    25.7770 H6            1 RES     
      69 H6          27.0171    19.3635    26.4157 H6            1 RES     
      70 H6          28.0842    20.6505    24.5057 H6            1 RES     
      71 H6          28.9178    19.1542    24.0189 H6            1 RES     
      72 H6          26.7866    18.0357    23.3708 H6            1 RES     
      73 H6          27.2291    19.4626    22.3666 H6            1 RES     
      74 H6          25.4240    20.8333    23.3852 H6            1 RES     
      75 H6          25.0767    19.5077    24.5011 H6            1 RES     
      76 H6          23.2251    19.6130    23.0386 H6            1 RES     
      77 H6          24.0524    18.0645    22.7031 H6            1 RES     
      78 H6          23.9024    20.5563    20.9286 H6            1 RES     
      79 H6          24.6687    19.0875    20.3412 H6            1 RES     
      80 H6          22.4742    19.9698    19.2196 H6            1 RES     
      81 H6          21.5482    19.6052    20.6742 H6            1 RES     
      82 H6          22.5179    17.5499    18.4842 H6            1 RES     
      83 H6          21.6525    17.1530    19.9819 H6            1 RES     
      84 H6          19.3971    17.6881    18.9509 H6            1 RES     
      85 H6          20.2697    16.3064    18.3371 H6            1 RES     
      86 H6          20.2007    16.8583    16.1043 H6            1 RES     
      87 H6          20.1566    19.1219    15.0825 H6            1 RES     
      88 H6          21.3569    18.6326    16.2654 H6            1 RES     
      89 H6          20.2250    19.9935    18.1268 H6            1 RES     
      90 H6          19.2306    20.6908    16.8117 H6            1 RES     
      91 H6          21.5310    21.4446    15.7519 H6            1 RES     
      92 H6          22.3547    20.8361    17.1672 H6            1 RES     
      93 H6          22.0450    23.3327    17.2583 H6            1 RES     
      94 H6          21.3108    22.5142    18.6615 H6            1 RES     
      95 H6          19.0978    22.6863    17.7517 H6            1 RES     
      96 H6          19.7696    24.3047    17.8432 H6            1 RES     
      97 H6          20.1855    22.9211    15.1406 H6            1 RES     
      98 H6          18.5043    23.1154    15.6379 H6            1 RES     
      99 H6          18.6939    25.5230    15.8032 H6            1 RES     
     100 H6          19.2242    24.9127    14.1946 H6            1 RES     
     101 H6          21.6291    25.1863    14.8870 H6            1 RES     
     102 H6          20.6843    26.7231    14.9433 H6            1 RES     
     103 H6          21.0694    25.8628    16.4758 H6            1 RES     
     104 H6          18.5481    15.9760    15.0041 H6            1 RES     
     105 H6          17.9654    17.5377    14.7131 H6            1 RES     
     106 H6          15.2972    17.7881    16.1141 H6            1 RES     
     107 H6          14.5298    16.3283    16.8299 H6            1 RES     
     108 H6          17.3993    17.1584    17.7212 H6            1 RES     
     109 H6          16.9958    16.0203    19.7162 H6            1 RES     
     110 H6          15.2607    15.8033    19.3340 H6            1 RES     
     111 H6          16.5655    13.7382    19.1970 H6            1 RES     
     112 H6          15.7311    14.1471    17.6546 H6            1 RES     
     113 H6          17.8113    14.6818    16.5888 H6            1 RES     
     114 H6          18.7205    14.7743    18.1158 H6            1 RES     
     115 H6          19.2608    12.8119    16.7135 H6            1 RES     
     116 H6          18.5414    12.3749    18.3118 H6            1 RES     
     117 H6          16.3059    12.1127    17.1870 H6            1 RES     
     118 H6          17.0616    12.4008    15.5764 H6            1 RES     
     119 H6          18.4624    10.3366    15.9294 H6            1 RES     
     120 H6          17.8601    10.2374    17.6369 H6            1 RES     
     121 H6          16.1789     9.9380    15.1212 H6            1 RES     
     122 H6          15.5042    10.0224    16.8152 H6            1 RES     
     123 H6          17.3857     7.8951    15.6746 H6            1 RES     
     124 H6          15.6252     7.7264    16.0745 H6            1 RES     
     125 H6          16.8180     8.0081    17.4013 H6            1 RES     
     126 H6          14.9643    18.3743    18.9832 H6            1 RES     
     127 H6          16.0440    19.1238    17.7692 H6            1 RES     
     128 H6          17.9691    19.2173    19.2255 H6            1 RES     
     129 H6          16.5685    20.1186    19.7590 H6            1 RES     
     130 H6          17.6646    17.6306    21.1907 H6            1 RES     
     131 H6          17.7171    19.3524    21.6565 H6            1 RES     
     132 H6          15.2415    17.5841    21.3842 H6            1 RES     
     133 H6          15.1506    19.3769    21.6472 H6            1 RES     
     134 H6          16.2047    19.2313    23.8368 H6            1 RES     
     135 H6          16.6297    17.5051    23.5921 H6            1 RES     
     136 H6          14.6740    17.6287    25.0736 H6            1 RES     
     137 H6          14.3249    16.7979    23.5355 H6            1 RES     
     138 H6          12.4059    18.1350    24.0817 H6            1 RES     
     139 H6          13.1685    18.8199    22.6400 H6            1 RES     
     140 H6          14.2014    20.6447    24.0238 H6            1 RES     
     141 H6          12.4117    20.6079    24.1158 H6            1 RES     
     142 H6          14.3485    19.5587    26.2858 H6            1 RES     
     143 H6          13.4042    21.0823    26.3132 H6            1 RES     
     144 H6          11.2593    19.7834    26.2859 H6            1 RES     
     145 H6          12.2018    18.2365    26.3200 H6            1 RES     
     146 H6          12.3017    19.3735    27.6999 H6            1 RES     
     147 H4          14.7172    11.2224    11.8502 H4            1 RES     
     148 H4           6.1008    10.8502    10.8624 H4            1 RES     
@<TRIPOS>BOND
       1        1        2 1
       2        1        8 1
       3        1       44 1
       4        2        3 1
       5        2        6 1
       6        3        4 1
       7        3        7 1
       8        4        5 1
       9        5        6 1
      10        5       16 1
      11        6       12 1
      12        7        8 1
      13        7       11 1
      14        8        9 1
      15        9       10 1
      16        9       13 1
      17       10       11 1
      18       10      147 1
      19       14       15 1
      20       14       22 1
      21       15       16 1
      22       15       23 1
      23       16       17 1
      24       17       18 1
      25       17       21 1
      26       18       19 1
      27       19       20 1
      28       20       21 1
      29       21       22 1
      30       22      148 1
      31       24       25 1
      32       24       65 1
      33       24       66 1
      34       24       67 1
      35       25       26 1
      36       25       68 1
      37       25       69 1
      38       26       27 1
      39       26       70 1
      40       26       71 1
      41       27       28 1
      42       27       72 1
      43       27       73 1
      44       28       29 1
      45       28       74 1
      46       28       75 1
      47       29       30 1
      48       29       76 1
      49       29       77 1
      50       30       31 1
      51       30       78 1
      52       30       79 1
      53       31       32 1
      54       31       80 1
      55       31       81 1
      56       32       33 1
      57       32       82 1
      58       32       83 1
      59       33       34 1
      60       33       84 1
      61       33       85 1
      62       34       35 1
      63       34       43 1
      64       34       86 1
      65       35       36 1
      66       35       87 1
      67       35       88 1
      68       36       37 1
      69       36       89 1
      70       36       90 1
      71       37       38 1
      72       37       91 1
      73       37       92 1
      74       38       39 1
      75       38       93 1
      76       38       94 1
      77       39       40 1
      78       39       95 1
      79       39       96 1
      80       40       41 1
      81       40       97 1
      82       40       98 1
      83       41       42 1
      84       41       99 1
      85       41      100 1
      86       42      101 1
      87       42      102 1
      88       42      103 1
      89       43       44 1
      90       43      104 1
      91       43      105 1
      92       44       45 1
      93       45       46 1
      94       45      106 1
      95       45      107 1
      96       46       47 1
      97       46       55 1
      98       46      108 1
      99       47       48 1
     100       47      109 1
     101       47      110 1
     102       48       49 1
     103       48      111 1
     104       48      112 1
     105       49       50 1
     106       49      113 1
     107       49      114 1
     108       50       51 1
     109       50      115 1
     110       50      116 1
     111       51       52 1
     112       51      117 1
     113       51      118 1
     114       52       53 1
     115       52      119 1
     116       52      120 1
     117       53       54 1
     118       53      121 1
     119       53      122 1
     120       54      123 1
     121       54      124 1
     122       54      125 1
     123       55       56 1
     124       55      126 1
     125       55      127 1
     126       56       57 1
     127       56      128 1
     128       56      129 1
     129       57       58 1
     130       57      130 1
     131       57      131 1
     132       58       59 1
     133       58      132 1
     134       58      133 1
     135       59       60 1
     136       59      134 1
     137       59      135 1
     138       60       61 1
     139       60      136 1
     140       60      137 1
     141       61       62 1
     142       61      138 1
     143       61      139 1
     144       62       63 1
     145       62      140 1
     146       62      141 1
     147       63       64 1
     148       63      142 1
     149       63      143 1
     150       64      144 1
     151       64      145 1
     152       64      146 1
@<TRIPOS>SUBSTRUCTURE
       1 RES             1 RESIDUE    0 **** ROOT      0
