@<TRIPOS>MOLECULE
RES
318 327 1 0 1
SMALL
NO_CHARGES
@<TRIPOS>CRYSIN
   30.6190    24.0560    36.8180    90.0000    90.0000    90.0000  1  1
@<TRIPOS>ATOM
       1 C           -9.7100    -0.7460    -1.1790 C             1 RES     
       2 C          -10.9920    -0.0690    -0.7150 C             1 RES     
       3 C          -10.6060     0.4550     0.6420 C             1 RES     
       4 S          -12.0570     1.3370     1.2620 S             1 RES     
       5 C          -13.0270     0.0670     0.4160 C             1 RES     
       6 C          -12.3310    -0.6590    -0.5420 C             1 RES     
       7 C           -9.3350     1.2250     0.3400 C             1 RES     
       8 C           -8.7720     0.4600    -0.8550 C             1 RES     
       9 C           -7.3560     0.1200    -0.6350 C             1 RES     
      10 C           -6.9440     0.1350     0.7900 C             1 RES     
      11 S           -8.1080     1.2090     1.7080 S             1 RES     
      12 H          -14.0870    -0.0590     0.5910 H             1 RES     
      13 H          -12.8380    -1.2670    -1.2780 H             1 RES     
      14 H           -6.7990    -0.4230    -1.3870 H             1 RES     
      15 C            2.1340     0.7170    -2.2360 C             1 RES     
      16 C            0.7330     1.0780    -1.7050 C             1 RES     
      17 C            1.0590     1.6080    -0.3440 C             1 RES     
      18 S           -0.4740     2.1900     0.3820 S             1 RES     
      19 C           -1.1850     0.6060    -0.2330 C             1 RES     
      20 C           -0.4270     0.1770    -1.4760 C             1 RES     
      21 C            2.1530     2.6140    -0.5840 C             1 RES     
      22 C            2.8080     2.0790    -1.8540 C             1 RES     
      23 C            4.2820     2.0890    -1.6860 C             1 RES     
      24 C            4.7010     1.9610    -0.2660 C             1 RES     
      25 S            3.3510     2.5810     0.7960 S             1 RES     
      26 H           -0.9270    -0.2690    -2.3250 H             1 RES     
      27 H            4.9280     1.7750    -2.4960 H             1 RES     
      28 C            8.5020     2.4350    -0.2830 C             1 RES     
      29 N            9.5540     1.5190    -0.6710 N             1 RES     
      30 S            8.9190    -0.1180    -0.3830 S             1 RES     
      31 N            7.2710     0.4430    -0.0320 N             1 RES     
      32 C            7.1950     1.7750    -0.5890 C             1 RES     
      33 C            6.0600     2.5980     0.0410 C             1 RES     
      34 C            6.2070     4.1240    -0.2460 C             1 RES     
      35 F            5.0050     4.7260    -0.5760 F             1 RES     
      36 C            7.2610     4.4160    -1.3200 C             1 RES     
      37 C            8.6310     3.8030    -0.9750 C             1 RES     
      38 H            7.3660     5.5020    -1.5200 H             1 RES     
      39 H            9.2250     3.7450    -1.9110 H             1 RES     
      40 C           -4.9750     1.5930     0.0540 C             1 RES     
      41 N           -5.5670     2.8620     0.4080 N             1 RES     
      42 S           -4.5500     4.0730    -0.4060 S             1 RES     
      43 N           -3.2300     2.9380    -0.7280 N             1 RES     
      44 C           -3.4870     1.7940     0.1200 C             1 RES     
      45 C           -2.7290     0.5270    -0.3460 C             1 RES     
      46 C           -3.1730    -0.6450     0.5420 C             1 RES     
      47 F           -2.5720    -1.8190     0.1220 F             1 RES     
      48 C           -4.6890    -0.8300     0.5250 C             1 RES     
      49 C           -5.4430     0.4380     0.9490 C             1 RES     
      50 H           -4.9660    -1.6740     1.1920 H             1 RES     
      51 C          -15.3360   -12.5860     3.5880 C             1 RES     
      52 C          -14.2610   -12.6510     4.6690 C             1 RES     
      53 C          -13.4870   -11.3300     4.7610 C             1 RES     
      54 C          -12.4400   -11.3850     5.8870 C             1 RES     
      55 C          -11.6830   -10.0460     6.1000 C             1 RES     
      56 C          -10.8290    -9.6670     4.8600 C             1 RES     
      57 C          -10.0720    -8.3380     5.0150 C             1 RES     
      58 C           -9.3920    -7.9510     3.6940 C             1 RES     
      59 C           -8.5300    -6.6830     3.7980 C             1 RES     
      60 C           -9.2650    -5.4160     4.2790 C             1 RES     
      61 C          -10.4880    -4.9770     3.4500 C             1 RES     
      62 C          -10.1650    -4.7350     1.9710 C             1 RES     
      63 C          -11.3290    -4.0250     1.2450 C             1 RES     
      64 C          -11.1440    -3.9370    -0.2850 C             1 RES     
      65 C           -9.7690    -3.4390    -0.7440 C             1 RES     
      66 C           -9.2980    -2.0250    -0.3230 C             1 RES     
      67 C          -10.8750   -10.0880     7.4270 C             1 RES     
      68 C           -9.7130   -11.1010     7.4560 C             1 RES     
      69 C           -8.9410   -11.0810     8.7880 C             1 RES     
      70 C           -9.7880   -11.5650     9.9820 C             1 RES     
      71 C           -8.9900   -11.6600    11.2920 C             1 RES     
      72 C           -8.5090   -10.3020    11.8050 C             1 RES     
      73 H          -14.8770   -12.3900     2.5960 H             1 RES     
      74 H          -15.8790   -13.5540     3.5450 H             1 RES     
      75 H          -16.0650   -11.7800     3.8190 H             1 RES     
      76 H          -14.7520   -12.8660     5.6430 H             1 RES     
      77 H          -13.5580   -13.4800     4.4330 H             1 RES     
      78 H          -13.0000   -11.1430     3.7810 H             1 RES     
      79 H          -14.2020   -10.5050     4.9740 H             1 RES     
      80 H          -12.9860   -11.6240     6.8270 H             1 RES     
      81 H          -11.7220   -12.2070     5.6820 H             1 RES     
      82 H          -12.4490    -9.2510     6.2420 H             1 RES     
      83 H          -11.5070    -9.5560     3.9900 H             1 RES     
      84 H          -10.1040   -10.4760     4.6270 H             1 RES     
      85 H           -9.2990    -8.4350     5.8060 H             1 RES     
      86 H          -10.7930    -7.5450     5.3010 H             1 RES     
      87 H           -8.7220    -8.7810     3.3740 H             1 RES     
      88 H          -10.1640    -7.8140     2.9080 H             1 RES     
      89 H           -8.0790    -6.4890     2.8010 H             1 RES     
      90 H           -7.6940    -6.8770     4.5050 H             1 RES     
      91 H           -8.5250    -4.5860     4.2810 H             1 RES     
      92 H           -9.5930    -5.5580     5.3300 H             1 RES     
      93 H          -10.8520    -4.0280     3.9020 H             1 RES     
      94 H          -11.3040    -5.7280     3.5270 H             1 RES     
      95 H           -9.9460    -5.7120     1.4870 H             1 RES     
      96 H           -9.2650    -4.0870     1.9080 H             1 RES     
      97 H          -11.4380    -3.0040     1.6700 H             1 RES     
      98 H          -12.2770    -4.5780     1.4250 H             1 RES     
      99 H          -11.9580    -3.3410    -0.7350 H             1 RES     
     100 H          -11.2400    -4.9710    -0.6860 H             1 RES     
     101 H           -9.6660    -3.5740    -1.8370 H             1 RES     
     102 H           -9.0360    -4.1610    -0.3250 H             1 RES     
     103 H           -9.4090    -1.8680     0.7710 H             1 RES     
     104 H           -8.2100    -2.1460    -0.4890 H             1 RES     
     105 H          -10.4700    -9.0770     7.6400 H             1 RES     
     106 H          -11.5930   -10.3180     8.2390 H             1 RES     
     107 H           -8.9930   -10.8410     6.6520 H             1 RES     
     108 H          -10.0820   -12.1310     7.2720 H             1 RES     
     109 H           -8.5590   -10.0540     8.9660 H             1 RES     
     110 H           -8.0710   -11.7640     8.6840 H             1 RES     
     111 H          -10.1690   -12.5830     9.7460 H             1 RES     
     112 H          -10.6590   -10.8990    10.1510 H             1 RES     
     113 H           -9.6530   -12.1000    12.0680 H             1 RES     
     114 H           -8.1200   -12.3390    11.1560 H             1 RES     
     115 H           -7.9840   -10.4410    12.7740 H             1 RES     
     116 H           -7.7980    -9.8330    11.0960 H             1 RES     
     117 H           -9.3740    -9.6240    11.9650 H             1 RES     
     118 C          -15.3240     0.6590   -14.2480 C             1 RES     
     119 C          -14.2440    -0.2820   -14.7740 C             1 RES     
     120 C          -13.4840    -0.9530   -13.6230 C             1 RES     
     121 C          -12.4290    -1.9340   -14.1630 C             1 RES     
     122 C          -11.6770    -2.7200   -13.0540 C             1 RES     
     123 C          -10.8340    -1.7760   -12.1520 C             1 RES     
     124 C          -10.0800    -2.5010   -11.0240 C             1 RES     
     125 C           -9.3970    -1.4870   -10.0920 C             1 RES     
     126 C           -8.5250    -2.1400    -9.0060 C             1 RES     
     127 C           -9.2560    -3.1170    -8.0660 C             1 RES     
     128 C          -10.4450    -2.5310    -7.2770 C             1 RES     
     129 C          -10.0520    -1.3740    -6.3450 C             1 RES     
     130 C          -11.2370    -0.9670    -5.4410 C             1 RES     
     131 C          -10.9450     0.2490    -4.5270 C             1 RES     
     132 C           -9.6620     0.1370    -3.6850 C             1 RES     
     133 C           -9.6000    -1.0610    -2.6990 C             1 RES     
     134 C          -10.8610    -3.8840   -13.6810 C             1 RES     
     135 C           -9.6990    -3.4530   -14.5980 C             1 RES     
     136 C           -8.9250    -4.6510   -15.1800 C             1 RES     
     137 C           -9.7670    -5.4980   -16.1550 C             1 RES     
     138 C           -8.9650    -6.6230   -16.8280 C             1 RES     
     139 C           -8.4880    -7.6950   -15.8470 C             1 RES     
     140 H          -14.8710     1.4590   -13.6260 H             1 RES     
     141 H          -15.8560     1.1290   -15.1020 H             1 RES     
     142 H          -16.0620     0.0940   -13.6390 H             1 RES     
     143 H          -14.7280    -1.0580   -15.4070 H             1 RES     
     144 H          -13.5330     0.2980   -15.4030 H             1 RES     
     145 H          -13.0060    -0.1600   -13.0120 H             1 RES     
     146 H          -14.2060    -1.5140   -12.9890 H             1 RES     
     147 H          -12.9660    -2.6690   -14.8030 H             1 RES     
     148 H          -11.7060    -1.3800   -14.8000 H             1 RES     
     149 H          -12.4460    -3.2060   -12.4120 H             1 RES     
     150 H          -11.5190    -1.0490   -11.6700 H             1 RES     
     151 H          -10.1070    -1.2050   -12.7690 H             1 RES     
     152 H           -9.3060    -3.1680   -11.4600 H             1 RES     
     153 H          -10.8020    -3.1090   -10.4400 H             1 RES     
     154 H           -8.7320    -0.8330   -10.6990 H             1 RES     
     155 H          -10.1660    -0.8410    -9.6180 H             1 RES     
     156 H           -8.0540    -1.3350    -8.4040 H             1 RES     
     157 H           -7.7030    -2.7000    -9.5040 H             1 RES     
     158 H           -8.5130    -3.5160    -7.3430 H             1 RES     
     159 H           -9.6260    -3.9820    -8.6580 H             1 RES     
     160 H          -10.8540    -3.3590    -6.6570 H             1 RES     
     161 H          -11.2450    -2.1990    -7.9720 H             1 RES     
     162 H           -9.7210    -0.5020    -6.9490 H             1 RES     
     163 H           -9.2110    -1.7190    -5.7080 H             1 RES     
     164 H          -11.5290    -1.8420    -4.8270 H             1 RES     
     165 H          -12.1100    -0.7040    -6.0770 H             1 RES     
     166 H          -11.8190     0.4320    -3.8660 H             1 RES     
     167 H          -10.8210     1.1390    -5.1830 H             1 RES     
     168 H           -9.4640     1.1000    -3.1740 H             1 RES     
     169 H           -8.8230     0.0330    -4.4030 H             1 RES     
     170 H          -10.3050    -1.8550    -3.0040 H             1 RES     
     171 H           -8.5790    -1.4860    -2.8220 H             1 RES     
     172 H          -10.4550    -4.5260   -12.8710 H             1 RES     
     173 H          -11.5750    -4.5120   -14.2520 H             1 RES     
     174 H           -8.9820    -2.8500   -14.0040 H             1 RES     
     175 H          -10.0680    -2.8280   -15.4380 H             1 RES     
     176 H           -8.5430    -5.2720   -14.3430 H             1 RES     
     177 H           -8.0530    -4.2480   -15.7410 H             1 RES     
     178 H          -10.1450    -4.8280   -16.9580 H             1 RES     
     179 H          -10.6390    -5.9500   -15.6400 H             1 RES     
     180 H           -9.6240    -7.1170   -17.5740 H             1 RES     
     181 H           -8.0930    -6.1950   -17.3680 H             1 RES     
     182 H           -7.9600    -8.4960   -16.4060 H             1 RES     
     183 H           -7.7810    -7.2740   -15.1030 H             1 RES     
     184 H           -9.3550    -8.1450   -15.3180 H             1 RES     
     185 C           -0.5800   -12.4700     1.7380 C             1 RES     
     186 C            0.4830   -12.3420     2.8320 C             1 RES     
     187 C            0.9200   -10.8800     3.0020 C             1 RES     
     188 C            1.9560   -10.7490     4.1320 C             1 RES     
     189 C            2.3810    -9.2830     4.4220 C             1 RES     
     190 C            3.1070    -8.6440     3.2080 C             1 RES     
     191 C            3.5380    -7.1870     3.4420 C             1 RES     
     192 C            4.0970    -6.5770     2.1480 C             1 RES     
     193 C            4.6510    -5.1560     2.3320 C             1 RES     
     194 C            3.6550    -4.1180     2.8860 C             1 RES     
     195 C            2.3620    -3.9070     2.0740 C             1 RES     
     196 C            2.6190    -3.4930     0.6200 C             1 RES     
     197 C            1.3250    -3.0040    -0.0690 C             1 RES     
     198 C            1.4830    -2.7620    -1.5860 C             1 RES     
     199 C            2.7120    -1.9390    -1.9830 C             1 RES     
     200 C            2.8440    -0.4830    -1.4670 C             1 RES     
     201 C            3.1910    -9.2110     5.7470 C             1 RES     
     202 C            4.5610    -9.9160     5.7170 C             1 RES     
     203 C            5.3190    -9.7940     7.0530 C             1 RES     
     204 C            4.6300   -10.5470     8.2080 C             1 RES     
     205 C            5.4390   -10.5230     9.5140 C             1 RES     
     206 C            5.5680    -9.1240    10.1180 C             1 RES     
     207 H           -0.1760   -12.1180     0.7670 H             1 RES     
     208 H           -0.8770   -13.5360     1.6370 H             1 RES     
     209 H           -1.4780   -11.8740     2.0020 H             1 RES     
     210 H            0.0510   -12.7180     3.7860 H             1 RES     
     211 H            1.3580   -12.9660     2.5620 H             1 RES     
     212 H            1.3450   -10.5310     2.0390 H             1 RES     
     213 H            0.0310   -10.2600     3.2540 H             1 RES     
     214 H            1.4870   -11.1610     5.0530 H             1 RES     
     215 H            2.8460   -11.3660     3.8870 H             1 RES     
     216 H            1.4500    -8.7000     4.6080 H             1 RES     
     217 H            2.4110    -8.6430     2.3440 H             1 RES     
     218 H            3.9980    -9.2470     2.9290 H             1 RES     
     219 H            4.3220    -7.1480     4.2280 H             1 RES     
     220 H            2.6570    -6.5990     3.7730 H             1 RES     
     221 H            4.9340    -7.2120     1.7800 H             1 RES     
     222 H            3.3050    -6.5720     1.3700 H             1 RES     
     223 H            5.0410    -4.8050     1.3520 H             1 RES     
     224 H            5.5160    -5.2010     3.0310 H             1 RES     
     225 H            4.1920    -3.1460     2.9510 H             1 RES     
     226 H            3.3710    -4.3980     3.9230 H             1 RES     
     227 H            1.7970    -3.0980     2.5860 H             1 RES     
     228 H            1.7360    -4.8240     2.0880 H             1 RES     
     229 H            3.0490    -4.3600     0.0710 H             1 RES     
     230 H            3.3530    -2.6600     0.6170 H             1 RES     
     231 H            0.9940    -2.0680     0.4280 H             1 RES     
     232 H            0.5240    -3.7660     0.0560 H             1 RES     
     233 H            0.5550    -2.3240    -2.0050 H             1 RES     
     234 H            1.6200    -3.7590    -2.0620 H             1 RES     
     235 H            2.8450    -1.9770    -3.0810 H             1 RES     
     236 H            3.5910    -2.5010    -1.6020 H             1 RES     
     237 H            2.7170    -0.4280    -0.3660 H             1 RES     
     238 H            3.9270    -0.3330    -1.6450 H             1 RES     
     239 H            3.3460    -8.1460     6.0210 H             1 RES     
     240 H            2.5570    -9.6520     6.5420 H             1 RES     
     241 H            5.1900    -9.4420     4.9350 H             1 RES     
     242 H            4.4480   -10.9920     5.4690 H             1 RES     
     243 H            5.4420    -8.7180     7.2980 H             1 RES     
     244 H            6.3290   -10.2350     6.9090 H             1 RES     
     245 H            4.5120   -11.6100     7.9050 H             1 RES     
     246 H            3.6230   -10.1300     8.4130 H             1 RES     
     247 H            4.9150   -11.1640    10.2550 H             1 RES     
     248 H            6.4500   -10.9510     9.3410 H             1 RES     
     249 H            6.1200    -9.1880    11.0790 H             1 RES     
     250 H            6.1300    -8.4450     9.4460 H             1 RES     
     251 H            4.5620    -8.6970    10.3160 H             1 RES     
     252 C           -3.7690     1.4300   -15.2850 C             1 RES     
     253 C           -2.5080     0.7920   -15.8610 C             1 RES     
     254 C           -1.6010     0.2540   -14.7460 C             1 RES     
     255 C           -0.3540    -0.4250   -15.3370 C             1 RES     
     256 C            0.5700    -1.0760   -14.2700 C             1 RES     
     257 C            1.1810    -0.0150   -13.3130 C             1 RES     
     258 C            2.0930    -0.6070   -12.2240 C             1 RES     
     259 C            2.5330     0.4870   -11.2360 C             1 RES     
     260 C            3.5490     0.0000   -10.1870 C             1 RES     
     261 C            3.0790    -1.1660    -9.2960 C             1 RES     
     262 C            1.8050    -0.9130    -8.4680 C             1 RES     
     263 C            1.9280     0.2570    -7.4750 C             1 RES     
     264 C            0.6890     0.3230    -6.5540 C             1 RES     
     265 C            0.6760     1.5290    -5.5810 C             1 RES     
     266 C            1.9330     1.6900    -4.7080 C             1 RES     
     267 C            2.2620     0.4960    -3.7740 C             1 RES     
     268 C            1.6260    -1.9850   -14.9600 C             1 RES     
     269 C            2.6490    -1.2480   -15.8470 C             1 RES     
     270 C            3.6680    -2.2030   -16.4980 C             1 RES     
     271 C            3.0280    -3.1580   -17.5270 C             1 RES     
     272 C            4.0560    -4.0300   -18.2660 C             1 RES     
     273 C            4.7720    -5.0240   -17.3520 C             1 RES     
     274 H           -3.5040     2.2800   -14.6200 H             1 RES     
     275 H           -4.4050     1.8090   -16.1120 H             1 RES     
     276 H           -4.3490     0.6800   -14.7050 H             1 RES     
     277 H           -2.8080    -0.0400   -16.5340 H             1 RES     
     278 H           -1.9570     1.5520   -16.4560 H             1 RES     
     279 H           -1.3120     1.1030   -14.0930 H             1 RES     
     280 H           -2.1670    -0.4910   -14.1450 H             1 RES     
     281 H           -0.7130    -1.2280   -16.0180 H             1 RES     
     282 H            0.2150     0.3140   -15.9400 H             1 RES     
     283 H           -0.0610    -1.7610   -13.6600 H             1 RES     
     284 H            0.3520     0.5070   -12.7950 H             1 RES     
     285 H            1.7510     0.7410   -13.8950 H             1 RES     
     286 H            2.9950    -1.0520   -12.6940 H             1 RES     
     287 H            1.5370    -1.3950   -11.6750 H             1 RES     
     288 H            3.0200     1.3090   -11.8060 H             1 RES     
     289 H            1.6410     0.9090   -10.7260 H             1 RES     
     290 H            3.8280     0.8620    -9.5440 H             1 RES     
     291 H            4.4710    -0.3260   -10.7160 H             1 RES     
     292 H            3.9090    -1.4180    -8.6000 H             1 RES     
     293 H            2.9100    -2.0610    -9.9320 H             1 RES     
     294 H            1.6110    -1.8450    -7.8930 H             1 RES     
     295 H            0.9370    -0.7430    -9.1410 H             1 RES     
     296 H            2.0330     1.2110    -8.0350 H             1 RES     
     297 H            2.8340     0.0950    -6.8530 H             1 RES     
     298 H            0.6220    -0.6270    -5.9850 H             1 RES     
     299 H           -0.2260     0.3950    -7.1820 H             1 RES     
     300 H           -0.2240     1.4620    -4.9330 H             1 RES     
     301 H            0.5870     2.4530    -6.1940 H             1 RES     
     302 H            1.8750     2.6410    -4.1420 H             1 RES     
     303 H            2.7860     1.8290    -5.4050 H             1 RES     
     304 H            1.7190    -0.4110    -4.0940 H             1 RES     
     305 H            3.3430     0.2900    -3.9430 H             1 RES     
     306 H            2.1760    -2.5600   -14.1850 H             1 RES     
     307 H            1.0690    -2.7270   -15.5680 H             1 RES     
     308 H            3.2180    -0.5340   -15.2160 H             1 RES     
     309 H            2.1390    -0.6750   -16.6490 H             1 RES     
     310 H            4.1890    -2.7730   -15.7000 H             1 RES     
     311 H            4.4210    -1.5810   -17.0300 H             1 RES     
     312 H            2.5010    -2.5430   -18.2880 H             1 RES     
     313 H            2.2850    -3.8260   -17.0440 H             1 RES     
     314 H            3.5170    -4.6130   -19.0440 H             1 RES     
     315 H            4.8040    -3.3850   -18.7750 H             1 RES     
     316 H            5.4610    -5.6500   -17.9580 H             1 RES     
     317 H            5.3750    -4.5020   -16.5820 H             1 RES     
     318 H            4.0350    -5.6900   -16.8550 H             1 RES     
@<TRIPOS>BOND
       1        2        1 1
       2        8        1 1
       3       66        1 1
       4      133        1 1
       5        3        2 1
       6        6        2 1
       7        4        3 1
       8        7        3 1
       9        5        4 1
      10        6        5 1
      11       12        5 1
      12       13        6 1
      13        8        7 1
      14       11        7 1
      15        9        8 1
      16       10        9 1
      17       14        9 1
      18       11       10 1
      19       49       10 1
      20       16       15 1
      21       22       15 1
      22      200       15 1
      23      267       15 1
      24       17       16 1
      25       20       16 1
      26       18       17 1
      27       21       17 1
      28       19       18 1
      29       20       19 1
      30       45       19 1
      31       26       20 1
      32       22       21 1
      33       25       21 1
      34       23       22 1
      35       24       23 1
      36       27       23 1
      37       25       24 1
      38       33       24 1
      39       29       28 1
      40       32       28 1
      41       37       28 1
      42       30       29 1
      43       31       30 1
      44       32       31 1
      45       33       32 1
      46       34       33 1
      47       35       34 1
      48       36       34 1
      49       37       36 1
      50       38       36 1
      51       39       37 1
      52       41       40 1
      53       44       40 1
      54       49       40 1
      55       42       41 1
      56       43       42 1
      57       44       43 1
      58       45       44 1
      59       46       45 1
      60       47       46 1
      61       48       46 1
      62       49       48 1
      63       50       48 1
      64       52       51 1
      65       73       51 1
      66       74       51 1
      67       75       51 1
      68       53       52 1
      69       76       52 1
      70       77       52 1
      71       54       53 1
      72       78       53 1
      73       79       53 1
      74       55       54 1
      75       80       54 1
      76       81       54 1
      77       56       55 1
      78       67       55 1
      79       82       55 1
      80       57       56 1
      81       83       56 1
      82       84       56 1
      83       58       57 1
      84       85       57 1
      85       86       57 1
      86       59       58 1
      87       87       58 1
      88       88       58 1
      89       60       59 1
      90       89       59 1
      91       90       59 1
      92       61       60 1
      93       91       60 1
      94       92       60 1
      95       62       61 1
      96       93       61 1
      97       94       61 1
      98       63       62 1
      99       95       62 1
     100       96       62 1
     101       64       63 1
     102       97       63 1
     103       98       63 1
     104       65       64 1
     105       99       64 1
     106      100       64 1
     107       66       65 1
     108      101       65 1
     109      102       65 1
     110      103       66 1
     111      104       66 1
     112       68       67 1
     113      105       67 1
     114      106       67 1
     115       69       68 1
     116      107       68 1
     117      108       68 1
     118       70       69 1
     119      109       69 1
     120      110       69 1
     121       71       70 1
     122      111       70 1
     123      112       70 1
     124       72       71 1
     125      113       71 1
     126      114       71 1
     127      115       72 1
     128      116       72 1
     129      117       72 1
     130      119      118 1
     131      140      118 1
     132      141      118 1
     133      142      118 1
     134      120      119 1
     135      143      119 1
     136      144      119 1
     137      121      120 1
     138      145      120 1
     139      146      120 1
     140      122      121 1
     141      147      121 1
     142      148      121 1
     143      123      122 1
     144      134      122 1
     145      149      122 1
     146      124      123 1
     147      150      123 1
     148      151      123 1
     149      125      124 1
     150      152      124 1
     151      153      124 1
     152      126      125 1
     153      154      125 1
     154      155      125 1
     155      127      126 1
     156      156      126 1
     157      157      126 1
     158      128      127 1
     159      158      127 1
     160      159      127 1
     161      129      128 1
     162      160      128 1
     163      161      128 1
     164      130      129 1
     165      162      129 1
     166      163      129 1
     167      131      130 1
     168      164      130 1
     169      165      130 1
     170      132      131 1
     171      166      131 1
     172      167      131 1
     173      133      132 1
     174      168      132 1
     175      169      132 1
     176      170      133 1
     177      171      133 1
     178      135      134 1
     179      172      134 1
     180      173      134 1
     181      136      135 1
     182      174      135 1
     183      175      135 1
     184      137      136 1
     185      176      136 1
     186      177      136 1
     187      138      137 1
     188      178      137 1
     189      179      137 1
     190      139      138 1
     191      180      138 1
     192      181      138 1
     193      182      139 1
     194      183      139 1
     195      184      139 1
     196      186      185 1
     197      207      185 1
     198      208      185 1
     199      209      185 1
     200      187      186 1
     201      210      186 1
     202      211      186 1
     203      188      187 1
     204      212      187 1
     205      213      187 1
     206      189      188 1
     207      214      188 1
     208      215      188 1
     209      190      189 1
     210      201      189 1
     211      216      189 1
     212      191      190 1
     213      217      190 1
     214      218      190 1
     215      192      191 1
     216      219      191 1
     217      220      191 1
     218      193      192 1
     219      221      192 1
     220      222      192 1
     221      194      193 1
     222      223      193 1
     223      224      193 1
     224      195      194 1
     225      225      194 1
     226      226      194 1
     227      196      195 1
     228      227      195 1
     229      228      195 1
     230      197      196 1
     231      229      196 1
     232      230      196 1
     233      198      197 1
     234      231      197 1
     235      232      197 1
     236      199      198 1
     237      233      198 1
     238      234      198 1
     239      200      199 1
     240      235      199 1
     241      236      199 1
     242      237      200 1
     243      238      200 1
     244      202      201 1
     245      239      201 1
     246      240      201 1
     247      203      202 1
     248      241      202 1
     249      242      202 1
     250      204      203 1
     251      243      203 1
     252      244      203 1
     253      205      204 1
     254      245      204 1
     255      246      204 1
     256      206      205 1
     257      247      205 1
     258      248      205 1
     259      249      206 1
     260      250      206 1
     261      251      206 1
     262      253      252 1
     263      274      252 1
     264      275      252 1
     265      276      252 1
     266      254      253 1
     267      277      253 1
     268      278      253 1
     269      255      254 1
     270      279      254 1
     271      280      254 1
     272      256      255 1
     273      281      255 1
     274      282      255 1
     275      257      256 1
     276      268      256 1
     277      283      256 1
     278      258      257 1
     279      284      257 1
     280      285      257 1
     281      259      258 1
     282      286      258 1
     283      287      258 1
     284      260      259 1
     285      288      259 1
     286      289      259 1
     287      261      260 1
     288      290      260 1
     289      291      260 1
     290      262      261 1
     291      292      261 1
     292      293      261 1
     293      263      262 1
     294      294      262 1
     295      295      262 1
     296      264      263 1
     297      296      263 1
     298      297      263 1
     299      265      264 1
     300      298      264 1
     301      299      264 1
     302      266      265 1
     303      300      265 1
     304      301      265 1
     305      267      266 1
     306      302      266 1
     307      303      266 1
     308      304      267 1
     309      305      267 1
     310      269      268 1
     311      306      268 1
     312      307      268 1
     313      270      269 1
     314      308      269 1
     315      309      269 1
     316      271      270 1
     317      310      270 1
     318      311      270 1
     319      272      271 1
     320      312      271 1
     321      313      271 1
     322      273      272 1
     323      314      272 1
     324      315      272 1
     325      316      273 1
     326      317      273 1
     327      318      273 1
@<TRIPOS>SUBSTRUCTURE
       1 RES             1 RESIDUE    0 **** ROOT      0
