@<TRIPOS>MOLECULE
RES
123 127 1 0 1
SMALL
NO_CHARGES
@<TRIPOS>CRYSIN
   18.1538    20.9950    20.2842    90.0000    90.0000    90.0000 1 1
@<TRIPOS>ATOM
       1 C0           9.7771     9.6221     8.7739 C0            1 RES     
       2 C1           8.7890    10.1868     9.8026 C1            1 RES     
       3 C1           9.3992    10.7087    10.8897 C1            1 RES     
       4 S2           8.3101    11.3428    11.9884 S2            1 RES     
       5 C1           6.9702    10.9366    11.0137 C1            1 RES     
       6 C1           7.3987    10.3100     9.8378 C1            1 RES     
       7 C1          10.7991    10.5479    10.7311 C1            1 RES     
       8 C1          11.0652     9.9038     9.5571 C1            1 RES     
       9 C1          12.4324     9.6816     9.3634 C1            1 RES     
      10 C1          13.1959    10.1779    10.4511 C1            1 RES     
      11 S2          12.1658    10.9110    11.5983 S2            1 RES     
      12 H3           6.7375     9.9642     9.0555 H3            1 RES     
      13 H3          12.8296     9.1808     8.4933 H3            1 RES     
      14 N4          16.6459    10.8514    11.8152 N4            1 RES     
      15 C1          15.3067    10.9420    11.5751 C1            1 RES     
      16 C1          14.6639    10.0696    10.6663 C1            1 RES     
      17 C1          15.4622     9.0959    10.0393 C1            1 RES     
      18 N4          14.9978     8.1537     9.1802 N4            1 RES     
      19 S2          16.3595     7.2872     8.8240 S2            1 RES     
      20 N4          17.5414     8.0321     9.7047 N4            1 RES     
      21 C1          16.8543     9.0195    10.3279 C1            1 RES     
      22 C1          17.4310     9.9159    11.2175 C1            1 RES     
      23 H5          14.7491    11.7114    12.0914 H5            1 RES     
      24 C0           9.6241    10.6023     7.5485 C0            1 RES     
      25 C0          10.5316    10.7331     6.2748 C0            1 RES     
      26 C0          10.3156    12.1501     5.6277 C0            1 RES     
      27 C0           9.0305    12.4488     4.7999 C0            1 RES     
      28 C0           7.6632    12.4766     5.5142 C0            1 RES     
      29 C0           7.5565    13.4407     6.7114 C0            1 RES     
      30 C0           7.7565    14.9118     6.3238 C0            1 RES     
      31 C0           7.5830    15.8216     7.5380 C0            1 RES     
      32 C0          10.3442     9.6698     5.1551 C0            1 RES     
      33 C0          11.1374     8.3785     5.3333 C0            1 RES     
      34 C0          10.7747     7.3644     4.2328 C0            1 RES     
      35 C0          11.5117     6.0281     4.4138 C0            1 RES     
      36 C0          10.9551     4.9659     3.4498 C0            1 RES     
      37 C0          11.5031     3.5493     3.7037 C0            1 RES     
      38 C0          11.0439     2.9713     5.0573 C0            1 RES     
      39 C0          11.4991     1.5265     5.2366 C0            1 RES     
      40 H6           8.5794    10.5157     7.2183 H6            1 RES     
      41 H6           9.7463    11.5970     8.0311 H6            1 RES     
      42 H6          11.5930    10.7506     6.6086 H6            1 RES     
      43 H6          11.1521    12.2868     4.9058 H6            1 RES     
      44 H6          10.4578    12.9453     6.3907 H6            1 RES     
      45 H6           8.9596    11.7281     3.9582 H6            1 RES     
      46 H6           9.1778    13.4470     4.3356 H6            1 RES     
      47 H6           7.3835    11.4587     5.8322 H6            1 RES     
      48 H6           6.8920    12.7639     4.7665 H6            1 RES     
      49 H6           8.2842    13.1651     7.4967 H6            1 RES     
      50 H6           6.5381    13.3270     7.1437 H6            1 RES     
      51 H6           8.7763    15.0675     5.9149 H6            1 RES     
      52 H6           7.0092    15.1971     5.5519 H6            1 RES     
      53 H6           6.5638    15.7075     7.9653 H6            1 RES     
      54 H6           7.7241    16.8802     7.2342 H6            1 RES     
      55 H6           8.3344    15.5717     8.3174 H6            1 RES     
      56 H6          10.7292    10.0776     4.1932 H6            1 RES     
      57 H6           9.2563     9.4765     5.0262 H6            1 RES     
      58 H6          12.2273     8.5977     5.3182 H6            1 RES     
      59 H6          10.8891     7.9531     6.2961 H6            1 RES     
      60 H6           9.6798     7.1769     4.3040 H6            1 RES     
      61 H6          10.9968     7.7779     3.2249 H6            1 RES     
      62 H6          12.6051     6.1586     4.2641 H6            1 RES     
      63 H6          11.3620     5.6905     5.4467 H6            1 RES     
      64 H6           9.8468     4.9177     3.5366 H6            1 RES     
      65 H6          11.2026     5.2731     2.4098 H6            1 RES     
      66 H6          12.6121     3.5504     3.6376 H6            1 RES     
      67 H6          11.1053     2.8918     2.9000 H6            1 RES     
      68 H6           9.9330     2.9971     5.1145 H6            1 RES     
      69 H6          11.4602     3.5595     5.8962 H6            1 RES     
      70 H6          11.1436     1.1467     6.2162 H6            1 RES     
      71 H6          11.0777     0.8852     4.4331 H6            1 RES     
      72 H6          12.6091     1.4666     5.2116 H6            1 RES     
      73 C0           9.3417     8.1235     8.5125 C0            1 RES     
      74 C0          10.2857     6.8793     8.6110 C0            1 RES     
      75 C0           9.7784     5.7347     7.6663 C0            1 RES     
      76 C0           8.5329     4.8874     8.0258 C0            1 RES     
      77 C0           7.1514     5.5709     7.9705 C0            1 RES     
      78 C0           6.7855     6.2370     6.6273 C0            1 RES     
      79 C0           6.7808     5.2727     5.4340 C0            1 RES     
      80 C0           6.3586     5.9986     4.1581 C0            1 RES     
      81 C0          10.5126     6.2596    10.0212 C0            1 RES     
      82 C0          11.3058     7.1247    10.9861 C0            1 RES     
      83 C0          11.6529     6.3912    12.2823 C0            1 RES     
      84 C0          12.4933     7.3074    13.1791 C0            1 RES     
      85 C0          12.8731     6.6132    14.4926 C0            1 RES     
      86 C0          13.7724     7.4829    15.3876 C0            1 RES     
      87 C0          13.0895     8.7780    15.8554 C0            1 RES     
      88 C0          13.9961     9.5680    16.7932 C0            1 RES     
      89 H6           8.4447     7.8767     9.1066 H6            1 RES     
      90 H6           8.9687     8.1686     7.4773 H6            1 RES     
      91 H6          11.2760     7.1712     8.2100 H6            1 RES     
      92 H6          10.6131     5.0026     7.6091 H6            1 RES     
      93 H6           9.6225     6.1243     6.6462 H6            1 RES     
      94 H6           8.6694     4.4216     9.0229 H6            1 RES     
      95 H6           8.5036     4.0464     7.3000 H6            1 RES     
      96 H6           7.0662     6.3174     8.7782 H6            1 RES     
      97 H6           6.3868     4.7949     8.1919 H6            1 RES     
      98 H6           7.4755     7.0690     6.4024 H6            1 RES     
      99 H6           5.7678     6.6721     6.7380 H6            1 RES     
     100 H6           7.7971     4.8557     5.2733 H6            1 RES     
     101 H6           6.0726     4.4387     5.6285 H6            1 RES     
     102 H6           5.3344     6.4146     4.2710 H6            1 RES     
     103 H6           6.3627     5.2900     3.3039 H6            1 RES     
     104 H6           7.0634     6.8285     3.9342 H6            1 RES     
     105 H6          11.1113     5.3317     9.8818 H6            1 RES     
     106 H6           9.5416     5.9806    10.4848 H6            1 RES     
     107 H6          12.2623     7.3974    10.4974 H6            1 RES     
     108 H6          10.7046     8.0119    11.2439 H6            1 RES     
     109 H6          10.7188     6.0965    12.8077 H6            1 RES     
     110 H6          12.2393     5.4747    12.0460 H6            1 RES     
     111 H6          13.4234     7.5960    12.6400 H6            1 RES     
     112 H6          11.9012     8.2218    13.3902 H6            1 RES     
     113 H6          11.9527     6.3324    15.0495 H6            1 RES     
     114 H6          13.4327     5.6823    14.2527 H6            1 RES     
     115 H6          14.7101     7.7291    14.8419 H6            1 RES     
     116 H6          14.0401     6.8796    16.2826 H6            1 RES     
     117 H6          12.1475     8.5296    16.3906 H6            1 RES     
     118 H6          12.8511     9.4274    14.9877 H6            1 RES     
     119 H6          13.4782    10.4962    17.1147 H6            1 RES     
     120 H6          14.2387     8.9652    17.6940 H6            1 RES     
     121 H6          14.9378     9.8471    16.2740 H6            1 RES     
     122 H5           5.9375    11.1393    11.2625 H5            1 RES     
     123 H5          18.4882     9.8712    11.4464 H5            1 RES     
@<TRIPOS>BOND
       1        1        2 1
       2        1        8 1
       3        1       24 1
       4        1       73 1
       5        2        3 1
       6        2        6 1
       7        3        4 1
       8        3        7 1
       9        4        5 1
      10        5        6 1
      11        5      122 1
      12        6       12 1
      13        7        8 1
      14        7       11 1
      15        8        9 1
      16        9       10 1
      17        9       13 1
      18       10       11 1
      19       10       16 1
      20       14       15 1
      21       14       22 1
      22       15       16 1
      23       15       23 1
      24       16       17 1
      25       17       18 1
      26       17       21 1
      27       18       19 1
      28       19       20 1
      29       20       21 1
      30       21       22 1
      31       22      123 1
      32       24       25 1
      33       24       40 1
      34       24       41 1
      35       25       26 1
      36       25       32 1
      37       25       42 1
      38       26       27 1
      39       26       43 1
      40       26       44 1
      41       27       28 1
      42       27       45 1
      43       27       46 1
      44       28       29 1
      45       28       47 1
      46       28       48 1
      47       29       30 1
      48       29       49 1
      49       29       50 1
      50       30       31 1
      51       30       51 1
      52       30       52 1
      53       31       53 1
      54       31       54 1
      55       31       55 1
      56       32       33 1
      57       32       56 1
      58       32       57 1
      59       33       34 1
      60       33       58 1
      61       33       59 1
      62       34       35 1
      63       34       60 1
      64       34       61 1
      65       35       36 1
      66       35       62 1
      67       35       63 1
      68       36       37 1
      69       36       64 1
      70       36       65 1
      71       37       38 1
      72       37       66 1
      73       37       67 1
      74       38       39 1
      75       38       68 1
      76       38       69 1
      77       39       70 1
      78       39       71 1
      79       39       72 1
      80       73       74 1
      81       73       89 1
      82       73       90 1
      83       74       75 1
      84       74       81 1
      85       74       91 1
      86       75       76 1
      87       75       92 1
      88       75       93 1
      89       76       77 1
      90       76       94 1
      91       76       95 1
      92       77       78 1
      93       77       96 1
      94       77       97 1
      95       78       79 1
      96       78       98 1
      97       78       99 1
      98       79       80 1
      99       79      100 1
     100       79      101 1
     101       80      102 1
     102       80      103 1
     103       80      104 1
     104       81       82 1
     105       81      105 1
     106       81      106 1
     107       82       83 1
     108       82      107 1
     109       82      108 1
     110       83       84 1
     111       83      109 1
     112       83      110 1
     113       84       85 1
     114       84      111 1
     115       84      112 1
     116       85       86 1
     117       85      113 1
     118       85      114 1
     119       86       87 1
     120       86      115 1
     121       86      116 1
     122       87       88 1
     123       87      117 1
     124       87      118 1
     125       88      119 1
     126       88      120 1
     127       88      121 1
@<TRIPOS>SUBSTRUCTURE
       1 RES             1 RESIDUE    0 **** ROOT      0
