@<TRIPOS>MOLECULE
Compound
222 231 1 0 1
SMALL
NO_CHARGES
@<TRIPOS>CRYSIN
   31.1300    18.1460    24.9060    90.0000    90.0000    90.0000  1  1
@<TRIPOS>ATOM
       1 C0         -10.0500    -0.5740    -1.1770 C0            1 Compound
       2 C1         -10.8430     0.7660    -1.4210 C1            1 Compound
       3 C2         -10.2260     1.8760    -0.5380 C2            1 Compound
       4 S3         -11.5320     2.6390     0.4730 S3            1 Compound
       5 C4         -12.7570     1.9370    -0.6260 C4            1 Compound
       6 C5         -12.3090     0.9600    -1.4780 C5            1 Compound
       7 C6          -9.2360     1.0860     0.2680 C6            1 Compound
       8 C7          -8.7650     0.1700    -0.7870 C7            1 Compound
       9 C8          -7.5280    -0.4620    -0.3070 C8            1 Compound
      10 C9          -6.7280     0.4710     0.5570 C9            1 Compound
      11 S10         -7.8320     1.8420     1.1210 S10           1 Compound
      12 H11        -13.7780     2.2860    -0.6570 H11           1 Compound
      13 H12        -12.9560     0.5400    -2.2300 H12           1 Compound
      14 H13         -7.0740    -1.3070    -0.8070 H13           1 Compound
      15 C0           1.7330     0.4830    -2.2410 C0            1 Compound
      16 C7           0.5280     1.4460    -2.5130 C7            1 Compound
      17 C14          0.6850     2.7630    -1.7780 C14           1 Compound
      18 S15         -0.8970     2.9820    -0.8820 S15           1 Compound
      19 C16         -1.8170     2.2030    -2.2860 C16           1 Compound
      20 C8          -0.8770     1.2880    -2.9690 C8            1 Compound
      21 C6           1.9090     2.4950    -0.9170 C6            1 Compound
      22 C7           2.6760     1.6010    -1.8150 C7            1 Compound
      23 C8           3.9760     1.3420    -1.1740 C8            1 Compound
      24 C17          4.4660     2.5700    -0.4570 C17           1 Compound
      25 S18          3.0980     3.8330    -0.6250 S18           1 Compound
      26 H19         -1.1190     1.0040    -3.9810 H19           1 Compound
      27 H13          4.6480     0.7180    -1.7440 H13           1 Compound
      28 C20          8.3130     2.3850    -1.0030 C20           1 Compound
      29 N21          9.2500     1.4480    -0.4310 N21           1 Compound
      30 S22          8.3710    -0.0930    -0.3080 S22           1 Compound
      31 N23          6.7850     0.6520    -0.5940 N23           1 Compound
      32 C24          6.9730     2.0760    -0.3990 C24           1 Compound
      33 C25          5.8620     2.9660    -1.0160 C25           1 Compound
      34 C26          6.2530     4.4400    -0.7460 C26           1 Compound
      35 F27          5.3760     5.3060    -1.3720 F27           1 Compound
      36 C28          7.6540     4.7500    -1.2880 C28           1 Compound
      37 C29          8.7010     3.8190    -0.6890 C29           1 Compound
      38 H30          7.9220     5.8040    -1.0650 H30           1 Compound
      39 H31          9.6940     4.0430    -1.1350 H31           1 Compound
      40 C32         -5.5470     2.0400    -1.2360 C32           1 Compound
      41 N23         -6.3620     3.1820    -0.8950 N23           1 Compound
      42 S22         -5.9040     4.4590    -2.0330 S22           1 Compound
      43 N23         -4.3550     3.6960    -2.4370 N23           1 Compound
      44 C33         -4.1790     2.6170    -1.4900 C33           1 Compound
      45 C25         -3.2150     1.5670    -2.0250 C25           1 Compound
      46 C34         -3.2020     0.3070    -1.1360 C34           1 Compound
      47 F27         -2.6270    -0.7430    -1.8290 F27           1 Compound
      48 C35         -4.5790    -0.1560    -0.6530 C35           1 Compound
      49 C36         -5.4230     0.9980    -0.1020 C36           1 Compound
      50 H37         -4.4480    -0.9570     0.1080 H37           1 Compound
      51 C38        -15.4870     3.2270     2.0600 C38           1 Compound
      52 C39        -15.0050     2.6770     3.4040 C39           1 Compound
      53 C40        -14.8350     1.1460     3.4340 C40           1 Compound
      54 C41        -13.7890     0.6210     2.4410 C41           1 Compound
      55 C42        -13.6550    -0.9250     2.3470 C42           1 Compound
      56 C43        -12.7590    -1.2910     1.1320 C43           1 Compound
      57 C44        -11.2390    -1.0440     1.2700 C44           1 Compound
      58 C45        -10.4770    -1.5510     0.0080 C45           1 Compound
      59 C46        -13.1510    -1.6130     3.6480 C46           1 Compound
      60 C47        -14.2730    -1.9700     4.6460 C47           1 Compound
      61 C48        -13.7450    -2.4370     6.0140 C48           1 Compound
      62 C49        -12.8190    -3.6610     5.9600 C49           1 Compound
      63 C50        -12.4040    -4.0750     7.3790 C50           1 Compound
      64 C51        -11.4410    -5.2570     7.3590 C51           1 Compound
      65 H52        -15.6560     4.3200     2.1480 H52           1 Compound
      66 H52        -16.4360     2.7400     1.7540 H52           1 Compound
      67 H52        -14.7230     3.0790     1.2760 H52           1 Compound
      68 H53        -14.0460     3.1690     3.6750 H53           1 Compound
      69 H53        -15.7630     2.9460     4.1710 H53           1 Compound
      70 H54        -14.5140     0.9000     4.4630 H54           1 Compound
      71 H54        -15.8180     0.6700     3.2180 H54           1 Compound
      72 H55        -14.1120     0.9540     1.4380 H55           1 Compound
      73 H55        -12.8040     1.0770     2.6740 H55           1 Compound
      74 H56        -14.6520    -1.3470     2.0830 H56           1 Compound
      75 H55        -12.8800    -2.3820     0.9700 H55           1 Compound
      76 H55        -13.1570    -0.7930     0.2290 H55           1 Compound
      77 H57        -10.9150    -1.6930     2.1120 H57           1 Compound
      78 H57        -10.9920    -0.0150     1.5670 H57           1 Compound
      79 H58         -9.5470    -2.0630     0.3370 H58           1 Compound
      80 H58        -11.0900    -2.3870    -0.3560 H58           1 Compound
      81 H55        -12.6970    -2.5920     3.3840 H55           1 Compound
      82 H55        -12.3590    -0.9810     4.1070 H55           1 Compound
      83 H54        -14.9130    -2.7600     4.1940 H54           1 Compound
      84 H54        -14.9310    -1.1140     4.8540 H54           1 Compound
      85 H54        -14.6260    -2.6810     6.6480 H54           1 Compound
      86 H54        -13.1990    -1.5940     6.4920 H54           1 Compound
      87 H54        -11.9050    -3.4120     5.3800 H54           1 Compound
      88 H54        -13.3440    -4.5080     5.4660 H54           1 Compound
      89 H59        -11.9030    -3.2220     7.8870 H59           1 Compound
      90 H59        -13.3080    -4.3560     7.9640 H59           1 Compound
      91 H52        -11.9140    -6.1360     6.8720 H52           1 Compound
      92 H52        -10.5130    -4.9870     6.8100 H52           1 Compound
      93 H52        -11.1680    -5.5300     8.4010 H52           1 Compound
      94 C38        -15.3560    -4.5770     0.6420 C38           1 Compound
      95 C39        -14.7280    -5.5720    -0.3370 C39           1 Compound
      96 C40        -14.5280    -5.0090    -1.7570 C40           1 Compound
      97 C41        -13.4660    -3.9020    -1.8260 C41           1 Compound
      98 C42        -13.2700    -3.1940    -3.2090 C42           1 Compound
      99 C43        -12.2200    -2.0560    -3.0450 C43           1 Compound
     100 C60        -10.7570    -2.5050    -2.9040 C60           1 Compound
     101 C61         -9.7700    -1.3710    -2.5040 C61           1 Compound
     102 C46        -12.8860    -4.1360    -4.3790 C46           1 Compound
     103 C47        -14.0890    -4.8240    -5.0600 C47           1 Compound
     104 C48        -13.6660    -5.8970    -6.0780 C48           1 Compound
     105 C49        -12.7520    -5.3740    -7.1940 C49           1 Compound
     106 C50        -12.4190    -6.4950    -8.1860 C50           1 Compound
     107 C51        -11.4610    -6.0050    -9.2660 C51           1 Compound
     108 H52        -15.5090    -5.0730     1.6240 H52           1 Compound
     109 H52        -16.3410    -4.2310     0.2620 H52           1 Compound
     110 H52        -14.7060    -3.7010     0.8110 H52           1 Compound
     111 H53        -13.7570    -5.9340     0.0670 H53           1 Compound
     112 H53        -15.4170    -6.4420    -0.4080 H53           1 Compound
     113 H54        -14.1750    -5.8600    -2.3730 H54           1 Compound
     114 H54        -15.5020    -4.6350    -2.1420 H54           1 Compound
     115 H55        -13.7650    -3.1080    -1.1150 H55           1 Compound
     116 H55        -12.5090    -4.3400    -1.4760 H55           1 Compound
     117 H56        -14.2210    -2.6760    -3.4670 H56           1 Compound
     118 H55        -12.2760    -1.3570    -3.9090 H55           1 Compound
     119 H55        -12.5110    -1.5190    -2.1330 H55           1 Compound
     120 H57        -10.4160    -2.9440    -3.8660 H57           1 Compound
     121 H57        -10.6700    -3.3220    -2.1680 H57           1 Compound
     122 H58         -8.7960    -1.8970    -2.4010 H58           1 Compound
     123 H58         -9.6550    -0.6480    -3.3420 H58           1 Compound
     124 H55        -12.4210    -3.5200    -5.1780 H55           1 Compound
     125 H55        -12.1320    -4.8690    -4.0190 H55           1 Compound
     126 H54        -14.7080    -4.0470    -5.5600 H54           1 Compound
     127 H54        -14.7450    -5.3330    -4.3400 H54           1 Compound
     128 H54        -14.5910    -6.3170    -6.5310 H54           1 Compound
     129 H54        -13.1430    -6.7160    -5.5350 H54           1 Compound
     130 H54        -11.8010    -5.0060    -6.7530 H54           1 Compound
     131 H54        -13.2540    -4.5390    -7.7300 H54           1 Compound
     132 H59        -11.9410    -7.3420    -7.6470 H59           1 Compound
     133 H59        -13.3540    -6.8590    -8.6640 H59           1 Compound
     134 H52        -11.9140    -5.1640    -9.8330 H52           1 Compound
     135 H52        -10.5080    -5.6660    -8.8070 H52           1 Compound
     136 H52        -11.2400    -6.8340    -9.9700 H52           1 Compound
     137 C38         -3.7350     3.3420     1.9950 C38           1 Compound
     138 C39         -3.0290     2.7070     3.1930 C39           1 Compound
     139 C40         -2.6510     1.2270     2.9930 C40           1 Compound
     140 C41         -1.6130     1.0030     1.8820 C41           1 Compound
     141 C42         -1.2910    -0.4820     1.5630 C42           1 Compound
     142 C43         -0.4350    -0.5920     0.2700 C43           1 Compound
     143 C44          1.0660    -0.3030     0.3080 C44           1 Compound
     144 C45          1.6760    -0.6070    -1.0930 C45           1 Compound
     145 C46         -0.6670    -1.2640     2.7480 C46           1 Compound
     146 C47         -1.7260    -1.9330     3.6540 C47           1 Compound
     147 C48         -1.1570    -2.4440     4.9860 C48           1 Compound
     148 C49          0.0150    -3.4250     4.8440 C49           1 Compound
     149 C50          0.4730    -3.9030     6.2280 C50           1 Compound
     150 C51          1.6870    -4.8200     6.1260 C51           1 Compound
     151 H52         -4.0130     4.3880     2.2420 H52           1 Compound
     152 H52         -4.6630     2.7860     1.7570 H52           1 Compound
     153 H52         -3.0790     3.3740     1.1040 H52           1 Compound
     154 H53         -2.1190     3.2920     3.4410 H53           1 Compound
     155 H53         -3.7260     2.7630     4.0580 H53           1 Compound
     156 H54         -2.2260     0.8780     3.9530 H54           1 Compound
     157 H54         -3.5770     0.6500     2.7600 H54           1 Compound
     158 H55         -2.0490     1.4240     0.9660 H55           1 Compound
     159 H55         -0.6790     1.5560     2.1220 H55           1 Compound
     160 H56         -2.2480    -0.9760     1.2800 H56           1 Compound
     161 H55         -0.5430    -1.6460    -0.0670 H55           1 Compound
     162 H55         -0.8490     0.0560    -0.5060 H55           1 Compound
     163 H57          1.4990    -1.0400     1.0160 H57           1 Compound
     164 H57          1.3200     0.6970     0.7000 H57           1 Compound
     165 H58          2.7270    -0.9280    -0.9280 H58           1 Compound
     166 H58          1.1710    -1.5220    -1.4490 H58           1 Compound
     167 H55         -0.0590    -2.1100     2.3620 H55           1 Compound
     168 H55          0.0110    -0.5830     3.3080 H55           1 Compound
     169 H54         -2.1930    -2.7680     3.0870 H54           1 Compound
     170 H54         -2.5410    -1.2410     3.9190 H54           1 Compound
     171 H54         -1.9850    -2.9420     5.5370 H54           1 Compound
     172 H54         -0.8190    -1.5690     5.5840 H54           1 Compound
     173 H54          0.8660    -2.9120     4.3460 H54           1 Compound
     174 H54         -0.2940    -4.2980     4.2300 H54           1 Compound
     175 H59          0.7470    -3.0270     6.8560 H59           1 Compound
     176 H59         -0.3570    -4.4500     6.7260 H59           1 Compound
     177 H52          1.4460    -5.7160     5.5160 H52           1 Compound
     178 H52          2.5380    -4.2770     5.6640 H52           1 Compound
     179 H52          1.9880    -5.1490     7.1430 H52           1 Compound
     180 C38         -2.2620    -4.6030    -0.6500 C38           1 Compound
     181 C39         -1.5870    -5.4490    -1.7350 C39           1 Compound
     182 C40         -1.5530    -4.7760    -3.1210 C40           1 Compound
     183 C41         -0.6720    -3.5260    -3.1490 C41           1 Compound
     184 C42         -0.6780    -2.6930    -4.4700 C42           1 Compound
     185 C43          0.1090    -1.3840    -4.2270 C43           1 Compound
     186 C60          1.6270    -1.4850    -4.0440 C60           1 Compound
     187 C61          2.2770    -0.1500    -3.5760 C61           1 Compound
     188 C46         -0.1420    -3.4200    -5.7210 C46           1 Compound
     189 C47         -1.2040    -4.2720    -6.4510 C47           1 Compound
     190 C48         -0.5930    -5.1310    -7.5710 C48           1 Compound
     191 C49          0.1610    -4.3220    -8.6360 C49           1 Compound
     192 C39          0.7250    -5.2530    -9.7150 C39           1 Compound
     193 C62          1.5410    -4.4750   -10.7410 C62           1 Compound
     194 H52         -2.2960    -5.1800     0.2980 H52           1 Compound
     195 H52         -3.3010    -4.3480    -0.9490 H52           1 Compound
     196 H52         -1.7020    -3.6710    -0.4450 H52           1 Compound
     197 H53         -0.5530    -5.7050    -1.4150 H53           1 Compound
     198 H53         -2.1650    -6.3930    -1.8290 H53           1 Compound
     199 H54         -1.1240    -5.5230    -3.8190 H54           1 Compound
     200 H54         -2.5910    -4.5220    -3.4280 H54           1 Compound
     201 H55         -1.0470    -2.8490    -2.3570 H55           1 Compound
     202 H55          0.3620    -3.8270    -2.8830 H55           1 Compound
     203 H56         -1.7210    -2.3590    -4.6690 H56           1 Compound
     204 H55         -0.0840    -0.6750    -5.0620 H55           1 Compound
     205 H55         -0.3140    -0.9970    -3.2950 H55           1 Compound
     206 H57          2.0930    -1.7950    -5.0030 H57           1 Compound
     207 H57          1.8790    -2.2710    -3.3120 H57           1 Compound
     208 H58          3.3550    -0.3930    -3.4440 H58           1 Compound
     209 H58          2.2150     0.6070    -4.3900 H58           1 Compound
     210 H55          0.1620    -2.6510    -6.4620 H55           1 Compound
     211 H55          0.7570    -4.0080    -5.4420 H55           1 Compound
     212 H54         -1.9830    -3.5940    -6.8660 H54           1 Compound
     213 H54         -1.7150    -4.9690    -5.7720 H54           1 Compound
     214 H54         -1.4220    -5.6920    -8.0590 H54           1 Compound
     215 H54          0.1020    -5.8630    -7.1120 H54           1 Compound
     216 H54          1.0150    -3.7900    -8.1670 H54           1 Compound
     217 H54         -0.5210    -3.5770    -9.1020 H54           1 Compound
     218 H63          1.3880    -6.0110    -9.2410 H63           1 Compound
     219 H63         -0.1080    -5.7800   -10.2290 H63           1 Compound
     220 H52          0.9060    -3.7170   -11.2470 H52           1 Compound
     221 H52          2.3950    -3.9650   -10.2460 H52           1 Compound
     222 H52          1.9420    -5.1750   -11.5050 H52           1 Compound
@<TRIPOS>BOND
       1        2        1 1
       2        8        1 1
       3       58        1 1
       4      101        1 1
       5        3        2 1
       6        6        2 1
       7        4        3 1
       8        7        3 1
       9        5        4 1
      10        6        5 1
      11       12        5 1
      12       13        6 1
      13        8        7 1
      14       11        7 1
      15        9        8 1
      16       10        9 1
      17       14        9 1
      18       11       10 1
      19       49       10 1
      20       16       15 1
      21       22       15 1
      22      144       15 1
      23      187       15 1
      24       17       16 1
      25       20       16 1
      26       18       17 1
      27       21       17 1
      28       19       18 1
      29       20       19 1
      30       45       19 1
      31       26       20 1
      32       22       21 1
      33       25       21 1
      34       23       22 1
      35       24       23 1
      36       27       23 1
      37       25       24 1
      38       33       24 1
      39       29       28 1
      40       32       28 1
      41       37       28 1
      42       30       29 1
      43       31       30 1
      44       32       31 1
      45       33       32 1
      46       34       33 1
      47       35       34 1
      48       36       34 1
      49       37       36 1
      50       38       36 1
      51       39       37 1
      52       41       40 1
      53       44       40 1
      54       49       40 1
      55       42       41 1
      56       43       42 1
      57       44       43 1
      58       45       44 1
      59       46       45 1
      60       47       46 1
      61       48       46 1
      62       49       48 1
      63       50       48 1
      64       52       51 1
      65       65       51 1
      66       66       51 1
      67       67       51 1
      68       53       52 1
      69       68       52 1
      70       69       52 1
      71       54       53 1
      72       70       53 1
      73       71       53 1
      74       55       54 1
      75       72       54 1
      76       73       54 1
      77       56       55 1
      78       59       55 1
      79       74       55 1
      80       57       56 1
      81       75       56 1
      82       76       56 1
      83       58       57 1
      84       77       57 1
      85       78       57 1
      86       79       58 1
      87       80       58 1
      88       60       59 1
      89       81       59 1
      90       82       59 1
      91       61       60 1
      92       83       60 1
      93       84       60 1
      94       62       61 1
      95       85       61 1
      96       86       61 1
      97       63       62 1
      98       87       62 1
      99       88       62 1
     100       64       63 1
     101       89       63 1
     102       90       63 1
     103       91       64 1
     104       92       64 1
     105       93       64 1
     106       95       94 1
     107      108       94 1
     108      109       94 1
     109      110       94 1
     110       96       95 1
     111      111       95 1
     112      112       95 1
     113       97       96 1
     114      113       96 1
     115      114       96 1
     116       98       97 1
     117      115       97 1
     118      116       97 1
     119       99       98 1
     120      102       98 1
     121      117       98 1
     122      100       99 1
     123      118       99 1
     124      119       99 1
     125      101      100 1
     126      120      100 1
     127      121      100 1
     128      122      101 1
     129      123      101 1
     130      103      102 1
     131      124      102 1
     132      125      102 1
     133      104      103 1
     134      126      103 1
     135      127      103 1
     136      105      104 1
     137      128      104 1
     138      129      104 1
     139      106      105 1
     140      130      105 1
     141      131      105 1
     142      107      106 1
     143      132      106 1
     144      133      106 1
     145      134      107 1
     146      135      107 1
     147      136      107 1
     148      138      137 1
     149      151      137 1
     150      152      137 1
     151      153      137 1
     152      139      138 1
     153      154      138 1
     154      155      138 1
     155      140      139 1
     156      156      139 1
     157      157      139 1
     158      141      140 1
     159      158      140 1
     160      159      140 1
     161      142      141 1
     162      145      141 1
     163      160      141 1
     164      143      142 1
     165      161      142 1
     166      162      142 1
     167      144      143 1
     168      163      143 1
     169      164      143 1
     170      165      144 1
     171      166      144 1
     172      146      145 1
     173      167      145 1
     174      168      145 1
     175      147      146 1
     176      169      146 1
     177      170      146 1
     178      148      147 1
     179      171      147 1
     180      172      147 1
     181      149      148 1
     182      173      148 1
     183      174      148 1
     184      150      149 1
     185      175      149 1
     186      176      149 1
     187      177      150 1
     188      178      150 1
     189      179      150 1
     190      181      180 1
     191      194      180 1
     192      195      180 1
     193      196      180 1
     194      182      181 1
     195      197      181 1
     196      198      181 1
     197      183      182 1
     198      199      182 1
     199      200      182 1
     200      184      183 1
     201      201      183 1
     202      202      183 1
     203      185      184 1
     204      188      184 1
     205      203      184 1
     206      186      185 1
     207      204      185 1
     208      205      185 1
     209      187      186 1
     210      206      186 1
     211      207      186 1
     212      208      187 1
     213      209      187 1
     214      189      188 1
     215      210      188 1
     216      211      188 1
     217      190      189 1
     218      212      189 1
     219      213      189 1
     220      191      190 1
     221      214      190 1
     222      215      190 1
     223      192      191 1
     224      216      191 1
     225      217      191 1
     226      193      192 1
     227      218      192 1
     228      219      192 1
     229      220      193 1
     230      221      193 1
     231      222      193 1
@<TRIPOS>SUBSTRUCTURE
       1 Compound        1 RESIDUE    0 **** ROOT      0
