@<TRIPOS>MOLECULE
Compound
246 255 1 0 1
SMALL
NO_CHARGES
@<TRIPOS>CRYSIN
   29.5350    16.2080    22.3900    90.0000    90.0000    90.0000  1  1
@<TRIPOS>ATOM
       1 C0          -9.9240    -1.0000    -0.0820 C0            1 Compound
       2 C1         -10.9570    -0.6870     1.0490 C1            1 Compound
       3 C2         -10.2680    -0.6790     2.4070 C2            1 Compound
       4 S3         -11.1200    -1.8650     3.5030 S3            1 Compound
       5 C4         -12.4680    -2.0020     2.3290 C4            1 Compound
       6 C5         -12.2400    -1.4240     1.1080 C5            1 Compound
       7 C6          -8.8720    -1.1040     2.0380 C6            1 Compound
       8 C7          -8.7020    -0.4630     0.6910 C7            1 Compound
       9 C8          -7.2670    -0.7330     0.4070 C8            1 Compound
      10 C9          -6.4640    -0.3110     1.6120 C9            1 Compound
      11 S10         -7.4930    -0.5990     3.1050 S10           1 Compound
      12 H11        -13.4090    -2.4770     2.5710 H11           1 Compound
      13 H12        -12.9620    -1.4270     0.3010 H12           1 Compound
      14 H13         -6.8480    -0.5830    -0.5720 H13           1 Compound
      15 C0           2.0060     0.0960    -1.1420 C0            1 Compound
      16 C7           0.8440    -0.0040    -0.0950 C7            1 Compound
      17 C14          1.3280     0.4590     1.2600 C14           1 Compound
      18 S15          0.5080    -0.5400     2.5490 S15           1 Compound
      19 C16         -0.6300    -1.3650     1.3540 C16           1 Compound
      20 C8           0.0290    -1.2380     0.0240 C8            1 Compound
      21 C6           2.8070     0.2550     1.0870 C6            1 Compound
      22 C7           2.9780     0.9100    -0.2560 C7            1 Compound
      23 C8           4.4530     0.9950    -0.4110 C8            1 Compound
      24 C16          5.0160     1.5890     0.8520 C16           1 Compound
      25 S17          3.9630     1.0280     2.2520 S17           1 Compound
      26 H18         -0.4020    -1.6800    -0.8620 H18           1 Compound
      27 H13          4.8930     1.2760    -1.3570 H13           1 Compound
      28 C19          8.8610     0.9860     0.5510 C19           1 Compound
      29 N20          9.6700     0.5590    -0.5650 N20           1 Compound
      30 S21          8.6690    -0.6310    -1.4240 S21           1 Compound
      31 N22          7.1710    -0.1600    -0.5880 N22           1 Compound
      32 C23          7.4520     1.1140     0.0350 C23           1 Compound
      33 C24          6.5050     1.4100     1.2080 C24           1 Compound
      34 C25          6.9740     2.7170     1.8930 C25           1 Compound
      35 F26          6.1920     3.0170     2.9950 F26           1 Compound
      36 C27          8.4430     2.6550     2.3250 C27           1 Compound
      37 C28          9.3550     2.2930     1.1560 C28           1 Compound
      38 H29          8.7560     3.6320     2.7550 H29           1 Compound
      39 H30          9.3650     3.1020     0.3960 H30           1 Compound
      40 C31         -4.1110     0.2810     2.2020 C31           1 Compound
      41 N22         -4.5430     1.0090     3.3710 N22           1 Compound
      42 S21         -3.1610     2.0480     3.7670 S21           1 Compound
      43 N22         -2.0010     1.0580     2.8490 N22           1 Compound
      44 C32         -2.6960    -0.1620     2.4840 C32           1 Compound
      45 C24         -2.0880    -0.8240     1.2310 C24           1 Compound
      46 C33         -3.0150    -1.9910     0.8110 C33           1 Compound
      47 F26         -2.5560    -2.6250    -0.3260 F26           1 Compound
      48 C34         -4.4550    -1.5330     0.5630 C34           1 Compound
      49 C35         -5.0420    -0.8740     1.8130 C35           1 Compound
      50 H36         -5.0710    -2.4190     0.2970 H36           1 Compound
      51 C37         -1.7070    -2.1140    -3.7080 C37           1 Compound
      52 C38         -2.4430    -0.7750    -3.7710 C38           1 Compound
      53 C39         -3.9740    -0.9170    -3.8680 C39           1 Compound
      54 C40         -4.4200    -1.6480    -5.1550 C40           1 Compound
      55 C41         -5.9410    -1.7570    -5.4510 C41           1 Compound
      56 C40         -6.8060    -2.6080    -4.4580 C40           1 Compound
      57 C42         -7.0140    -2.2710    -2.9550 C42           1 Compound
      58 C43         -8.1440    -3.2170    -2.4190 C43           1 Compound
      59 C44         -8.4940    -3.2490    -0.9070 C44           1 Compound
      60 C45         -9.7870    -2.5570    -0.3370 C45           1 Compound
      61 C40         -6.6380    -0.4730    -6.0190 C40           1 Compound
      62 C46         -6.4820     0.8420    -5.2560 C46           1 Compound
      63 C47         -7.4660     1.9330    -5.7340 C47           1 Compound
      64 C48         -7.3350     2.4880    -7.1570 C48           1 Compound
      65 C49         -8.4200     3.5760    -7.3340 C49           1 Compound
      66 C50         -8.4300     4.1950    -8.7240 C50           1 Compound
      67 H51         -1.8470    -2.6960    -4.6400 H51           1 Compound
      68 H51         -2.0650    -2.7100    -2.8440 H51           1 Compound
      69 H51         -0.6180    -1.9360    -3.5890 H51           1 Compound
      70 H52         -2.2040    -0.2110    -2.8430 H52           1 Compound
      71 H52         -2.0640    -0.1890    -4.6370 H52           1 Compound
      72 H53         -4.3850     0.1040    -3.8300 H53           1 Compound
      73 H53         -4.3250    -1.4510    -2.9700 H53           1 Compound
      74 H54         -4.0300    -2.6860    -5.1080 H54           1 Compound
      75 H54         -3.9490    -1.1470    -6.0300 H54           1 Compound
      76 H55         -5.9800    -2.4100    -6.3540 H55           1 Compound
      77 H56         -6.4070    -3.6470    -4.4830 H56           1 Compound
      78 H56         -7.8150    -2.6530    -4.9250 H56           1 Compound
      79 H53         -7.2140    -1.2020    -2.8270 H53           1 Compound
      80 H53         -6.0900    -2.4820    -2.3840 H53           1 Compound
      81 H53         -7.7310    -4.2320    -2.6280 H53           1 Compound
      82 H53         -9.0840    -3.1410    -3.0060 H53           1 Compound
      83 H57         -8.7670    -4.3200    -0.7450 H57           1 Compound
      84 H57         -7.5940    -3.1250    -0.2820 H57           1 Compound
      85 H58         -9.8780    -3.0290     0.6670 H58           1 Compound
      86 H58        -10.6770    -2.9230    -0.8930 H58           1 Compound
      87 H59         -7.7190    -0.7090    -6.1320 H59           1 Compound
      88 H59         -6.2460    -0.2780    -7.0410 H59           1 Compound
      89 H53         -6.7060     0.6470    -4.1880 H53           1 Compound
      90 H53         -5.4440     1.2220    -5.3470 H53           1 Compound
      91 H60         -7.3460     2.7930    -5.0380 H60           1 Compound
      92 H60         -8.4940     1.5280    -5.6620 H60           1 Compound
      93 H53         -6.3280     2.9300    -7.3070 H53           1 Compound
      94 H53         -7.4960     1.6750    -7.8960 H53           1 Compound
      95 H52         -9.4250     3.1350    -7.1480 H52           1 Compound
      96 H52         -8.2550     4.3880    -6.5900 H52           1 Compound
      97 H51         -8.6420     3.4200    -9.4890 H51           1 Compound
      98 H51         -9.2320     4.9650    -8.7690 H51           1 Compound
      99 H51         -7.4580     4.6830    -8.9380 H51           1 Compound
     100 C37         -2.7930     2.6000    -1.8680 C37           1 Compound
     101 C38         -3.5740     2.0010    -0.6980 C38           1 Compound
     102 C39         -5.0930     2.2380    -0.7780 C39           1 Compound
     103 C40         -5.4760     3.7280    -0.7650 C40           1 Compound
     104 C61         -6.9900     4.0850    -0.7240 C61           1 Compound
     105 C40         -7.8740     3.3980    -1.8170 C40           1 Compound
     106 C42         -8.3810     1.9590    -1.5570 C42           1 Compound
     107 C62         -9.2870     1.4860    -2.6800 C62           1 Compound
     108 C44         -9.8430     0.0500    -2.5810 C44           1 Compound
     109 C63        -10.5920    -0.2390    -1.2940 C63           1 Compound
     110 C40         -7.6450     4.1250     0.6900 C40           1 Compound
     111 C42         -7.5390     2.8490     1.5370 C42           1 Compound
     112 C64         -8.5650     2.8010     2.6770 C64           1 Compound
     113 C65         -8.2120     3.6730     3.8780 C65           1 Compound
     114 C49         -9.2200     3.4080     5.0080 C49           1 Compound
     115 C50         -8.8380     4.1420     6.2850 C50           1 Compound
     116 H51         -1.7210     2.3380    -1.7620 H51           1 Compound
     117 H51         -3.1650     2.1960    -2.8320 H51           1 Compound
     118 H51         -2.8690     3.7060    -1.8760 H51           1 Compound
     119 H52         -3.3980     0.9040    -0.7010 H52           1 Compound
     120 H52         -3.1780     2.4140     0.2540 H52           1 Compound
     121 H53         -5.5450     1.7250     0.0870 H53           1 Compound
     122 H53         -5.4600     1.7660    -1.7110 H53           1 Compound
     123 H54         -5.0720     4.1590    -1.7060 H54           1 Compound
     124 H54         -4.9760     4.2470     0.0810 H54           1 Compound
     125 H55         -7.0000     5.1570    -1.0270 H55           1 Compound
     126 H56         -7.3250     3.4380    -2.7810 H56           1 Compound
     127 H56         -8.7850     4.0240    -1.9340 H56           1 Compound
     128 H53         -9.0260     1.9570    -0.6640 H53           1 Compound
     129 H53         -7.5410     1.2620    -1.4640 H53           1 Compound
     130 H53         -8.7410     1.5500    -3.6080 H53           1 Compound
     131 H53        -10.1470     2.1880    -2.7430 H53           1 Compound
     132 H57        -10.5710     0.0040    -3.4220 H57           1 Compound
     133 H57         -9.1560    -0.7550    -2.7830 H57           1 Compound
     134 H58        -11.4520    -0.8810    -1.5900 H58           1 Compound
     135 H58        -11.0630     0.7220    -0.9840 H58           1 Compound
     136 H56         -8.7140     4.3840     0.5310 H56           1 Compound
     137 H56         -7.1970     4.9460     1.2900 H56           1 Compound
     138 H53         -7.7650     1.9850     0.9230 H53           1 Compound
     139 H53         -6.5070     2.6940     1.9150 H53           1 Compound
     140 H53         -8.5980     1.7660     3.0470 H53           1 Compound
     141 H53         -9.5830     3.0300     2.2910 H53           1 Compound
     142 H53         -7.1960     3.3840     4.2290 H53           1 Compound
     143 H53         -8.2090     4.7470     3.5980 H53           1 Compound
     144 H52        -10.2360     3.7220     4.6850 H52           1 Compound
     145 H52         -9.2450     2.3190     5.2400 H52           1 Compound
     146 H51         -8.8170     5.2370     6.1120 H51           1 Compound
     147 H51         -9.5830     3.9130     7.0770 H51           1 Compound
     148 H51         -7.8400     3.8010     6.6340 H51           1 Compound
     149 C37         10.1530     1.5640    -4.7850 C37           1 Compound
     150 C38          9.0290     2.5980    -4.7840 C38           1 Compound
     151 C39          7.6200     1.9860    -4.8780 C39           1 Compound
     152 C66          7.3930     1.2340    -6.2090 C66           1 Compound
     153 C41          5.9590     0.7300    -6.5320 C41           1 Compound
     154 C40          5.3560    -0.3740    -5.5990 C40           1 Compound
     155 C42          5.1310    -0.1990    -4.0710 C42           1 Compound
     156 C62          4.2740    -1.4130    -3.5880 C62           1 Compound
     157 C44          4.0220    -1.5990    -2.0730 C44           1 Compound
     158 C63          2.6060    -1.3340    -1.4540 C63           1 Compound
     159 C40          4.9400     1.8100    -7.0320 C40           1 Compound
     160 C42          4.6970     3.0400    -6.1600 C42           1 Compound
     161 C64          3.4700     3.8650    -6.6010 C64           1 Compound
     162 C65          3.5120     4.5470    -7.9710 C65           1 Compound
     163 C49          2.2090     5.3590    -8.1400 C49           1 Compound
     164 C50          2.1390     6.0960    -9.4700 C50           1 Compound
     165 H51         10.1780     0.9970    -5.7370 H51           1 Compound
     166 H51         10.0260     0.8620    -3.9340 H51           1 Compound
     167 H51         11.1260     2.0870    -4.6730 H51           1 Compound
     168 H52          9.1000     3.1620    -3.8320 H52           1 Compound
     169 H52          9.1820     3.3120    -5.6220 H52           1 Compound
     170 H53          6.9190     2.8260    -4.7680 H53           1 Compound
     171 H53          7.4730     1.3200    -4.0130 H53           1 Compound
     172 H54          8.0640     0.3500    -6.2180 H54           1 Compound
     173 H54          7.6960     1.8990    -7.0480 H54           1 Compound
     174 H55          6.0940     0.1470    -7.4750 H55           1 Compound
     175 H56          5.9970    -1.2790    -5.7050 H56           1 Compound
     176 H56          4.3760    -0.6350    -6.0550 H56           1 Compound
     177 H53          4.6920     0.7770    -3.8370 H53           1 Compound
     178 H53          6.1020    -0.2330    -3.5420 H53           1 Compound
     179 H53          4.8950    -2.2910    -3.8860 H53           1 Compound
     180 H53          3.3140    -1.5170    -4.1360 H53           1 Compound
     181 H57          4.0840    -2.7060    -1.9460 H57           1 Compound
     182 H57          4.8750    -1.2410    -1.4710 H57           1 Compound
     183 H58          2.6850    -1.8400    -0.4650 H58           1 Compound
     184 H58          1.8570    -1.9250    -2.0240 H58           1 Compound
     185 H56          3.9720     1.2920    -7.2140 H56           1 Compound
     186 H56          5.2840     2.1940    -8.0170 H56           1 Compound
     187 H53          4.5090     2.6950    -5.1250 H53           1 Compound
     188 H53          5.5860     3.7010    -6.1730 H53           1 Compound
     189 H53          3.3460     4.6730    -5.8470 H53           1 Compound
     190 H53          2.5760     3.2030    -6.5870 H53           1 Compound
     191 H53          4.3870     5.2290    -8.0240 H53           1 Compound
     192 H53          3.5880     3.7860    -8.7760 H53           1 Compound
     193 H52          1.3320     4.6780    -8.0700 H52           1 Compound
     194 H52          2.1320     6.1110    -7.3230 H52           1 Compound
     195 H51          2.1690     5.3760   -10.3130 H51           1 Compound
     196 H51          1.1830     6.6620    -9.5200 H51           1 Compound
     197 H51          2.9800     6.8140    -9.5570 H51           1 Compound
     198 C37          8.2130     5.4500    -2.2860 C37           1 Compound
     199 C38          7.4970     4.5050    -1.3190 C38           1 Compound
     200 C39          5.9720     4.4340    -1.5110 C39           1 Compound
     201 C66          5.2890     5.8060    -1.4130 C66           1 Compound
     202 C41          3.7340     5.8310    -1.4050 C41           1 Compound
     203 C40          3.0130     5.0130    -2.5300 C40           1 Compound
     204 C42          2.8640     3.4710    -2.3890 C42           1 Compound
     205 C43          1.9940     2.9090    -3.5010 C43           1 Compound
     206 C44          1.8330     1.3760    -3.5690 C44           1 Compound
     207 C45          1.2050     0.7410    -2.3380 C45           1 Compound
     208 C67          3.0750     5.7030    -0.0000 C67           1 Compound
     209 C68          3.4120     4.4440     0.8050 C68           1 Compound
     210 C64          2.3950     4.1720     1.9210 C64           1 Compound
     211 C65          2.6030     5.0010     3.1850 C65           1 Compound
     212 C49          1.6540     4.4870     4.2800 C49           1 Compound
     213 C50          1.9100     5.1700     5.6150 C50           1 Compound
     214 H51          7.9070     6.5010    -2.1090 H51           1 Compound
     215 H51          7.9940     5.1770    -3.3380 H51           1 Compound
     216 H51          9.3090     5.3850    -2.1160 H51           1 Compound
     217 H52          7.9050     3.4820    -1.4680 H52           1 Compound
     218 H52          7.7240     4.8270    -0.2800 H52           1 Compound
     219 H53          5.5820     3.7490    -0.7400 H53           1 Compound
     220 H53          5.7700     4.0040    -2.5140 H53           1 Compound
     221 H54          5.6230     6.3770    -2.3060 H54           1 Compound
     222 H54          5.6470     6.3540    -0.5130 H54           1 Compound
     223 H55          3.5040     6.8880    -1.6740 H55           1 Compound
     224 H56          3.5090     5.2440    -3.4970 H56           1 Compound
     225 H56          1.9770     5.4170    -2.5900 H56           1 Compound
     226 H53          2.2940     3.2230    -1.4850 H53           1 Compound
     227 H53          3.8480     2.9770    -2.4090 H53           1 Compound
     228 H53          2.3980     3.2260    -4.4510 H53           1 Compound
     229 H53          0.9830     3.3680    -3.4120 H53           1 Compound
     230 H57          1.1030     1.2470    -4.4010 H57           1 Compound
     231 H57          2.6930     0.8110    -3.8920 H57           1 Compound
     232 H58          0.5800    -0.0940    -2.7220 H58           1 Compound
     233 H58          0.4750     1.4960    -1.9700 H58           1 Compound
     234 H54          1.9780     5.7590    -0.1700 H54           1 Compound
     235 H54          3.3550     6.5750     0.6310 H54           1 Compound
     236 H53          3.3570     3.5770     0.1620 H53           1 Compound
     237 H53          4.4550     4.4630     1.1860 H53           1 Compound
     238 H53          2.5130     3.1260     2.2240 H53           1 Compound
     239 H53          1.3550     4.2590     1.5340 H53           1 Compound
     240 H53          3.6520     4.8560     3.5270 H53           1 Compound
     241 H53          2.4310     6.0790     2.9830 H53           1 Compound
     242 H52          0.5990     4.6500     3.9690 H52           1 Compound
     243 H52          1.8120     3.3940     4.4270 H52           1 Compound
     244 H51          1.7460     6.2640     5.5280 H51           1 Compound
     245 H51          1.2160     4.7550     6.3760 H51           1 Compound
     246 H51          2.9530     4.9740     5.9470 H51           1 Compound
@<TRIPOS>BOND
       1        2        1 1
       2        8        1 1
       3       60        1 1
       4      109        1 1
       5        3        2 1
       6        6        2 1
       7        4        3 1
       8        7        3 1
       9        5        4 1
      10        6        5 1
      11       12        5 1
      12       13        6 1
      13        8        7 1
      14       11        7 1
      15        9        8 1
      16       10        9 1
      17       14        9 1
      18       11       10 1
      19       49       10 1
      20       16       15 1
      21       22       15 1
      22      158       15 1
      23      207       15 1
      24       17       16 1
      25       20       16 1
      26       18       17 1
      27       21       17 1
      28       19       18 1
      29       20       19 1
      30       45       19 1
      31       26       20 1
      32       22       21 1
      33       25       21 1
      34       23       22 1
      35       24       23 1
      36       27       23 1
      37       25       24 1
      38       33       24 1
      39       29       28 1
      40       32       28 1
      41       37       28 1
      42       30       29 1
      43       31       30 1
      44       32       31 1
      45       33       32 1
      46       34       33 1
      47       35       34 1
      48       36       34 1
      49       37       36 1
      50       38       36 1
      51       39       37 1
      52       41       40 1
      53       44       40 1
      54       49       40 1
      55       42       41 1
      56       43       42 1
      57       44       43 1
      58       45       44 1
      59       46       45 1
      60       47       46 1
      61       48       46 1
      62       49       48 1
      63       50       48 1
      64       52       51 1
      65       67       51 1
      66       68       51 1
      67       69       51 1
      68       53       52 1
      69       70       52 1
      70       71       52 1
      71       54       53 1
      72       72       53 1
      73       73       53 1
      74       55       54 1
      75       74       54 1
      76       75       54 1
      77       56       55 1
      78       61       55 1
      79       76       55 1
      80       57       56 1
      81       77       56 1
      82       78       56 1
      83       58       57 1
      84       79       57 1
      85       80       57 1
      86       59       58 1
      87       81       58 1
      88       82       58 1
      89       60       59 1
      90       83       59 1
      91       84       59 1
      92       85       60 1
      93       86       60 1
      94       62       61 1
      95       87       61 1
      96       88       61 1
      97       63       62 1
      98       89       62 1
      99       90       62 1
     100       64       63 1
     101       91       63 1
     102       92       63 1
     103       65       64 1
     104       93       64 1
     105       94       64 1
     106       66       65 1
     107       95       65 1
     108       96       65 1
     109       97       66 1
     110       98       66 1
     111       99       66 1
     112      101      100 1
     113      116      100 1
     114      117      100 1
     115      118      100 1
     116      102      101 1
     117      119      101 1
     118      120      101 1
     119      103      102 1
     120      121      102 1
     121      122      102 1
     122      104      103 1
     123      123      103 1
     124      124      103 1
     125      105      104 1
     126      110      104 1
     127      125      104 1
     128      106      105 1
     129      126      105 1
     130      127      105 1
     131      107      106 1
     132      128      106 1
     133      129      106 1
     134      108      107 1
     135      130      107 1
     136      131      107 1
     137      109      108 1
     138      132      108 1
     139      133      108 1
     140      134      109 1
     141      135      109 1
     142      111      110 1
     143      136      110 1
     144      137      110 1
     145      112      111 1
     146      138      111 1
     147      139      111 1
     148      113      112 1
     149      140      112 1
     150      141      112 1
     151      114      113 1
     152      142      113 1
     153      143      113 1
     154      115      114 1
     155      144      114 1
     156      145      114 1
     157      146      115 1
     158      147      115 1
     159      148      115 1
     160      150      149 1
     161      165      149 1
     162      166      149 1
     163      167      149 1
     164      151      150 1
     165      168      150 1
     166      169      150 1
     167      152      151 1
     168      170      151 1
     169      171      151 1
     170      153      152 1
     171      172      152 1
     172      173      152 1
     173      154      153 1
     174      159      153 1
     175      174      153 1
     176      155      154 1
     177      175      154 1
     178      176      154 1
     179      156      155 1
     180      177      155 1
     181      178      155 1
     182      157      156 1
     183      179      156 1
     184      180      156 1
     185      158      157 1
     186      181      157 1
     187      182      157 1
     188      183      158 1
     189      184      158 1
     190      160      159 1
     191      185      159 1
     192      186      159 1
     193      161      160 1
     194      187      160 1
     195      188      160 1
     196      162      161 1
     197      189      161 1
     198      190      161 1
     199      163      162 1
     200      191      162 1
     201      192      162 1
     202      164      163 1
     203      193      163 1
     204      194      163 1
     205      195      164 1
     206      196      164 1
     207      197      164 1
     208      199      198 1
     209      214      198 1
     210      215      198 1
     211      216      198 1
     212      200      199 1
     213      217      199 1
     214      218      199 1
     215      201      200 1
     216      219      200 1
     217      220      200 1
     218      202      201 1
     219      221      201 1
     220      222      201 1
     221      203      202 1
     222      208      202 1
     223      223      202 1
     224      204      203 1
     225      224      203 1
     226      225      203 1
     227      205      204 1
     228      226      204 1
     229      227      204 1
     230      206      205 1
     231      228      205 1
     232      229      205 1
     233      207      206 1
     234      230      206 1
     235      231      206 1
     236      232      207 1
     237      233      207 1
     238      209      208 1
     239      234      208 1
     240      235      208 1
     241      210      209 1
     242      236      209 1
     243      237      209 1
     244      211      210 1
     245      238      210 1
     246      239      210 1
     247      212      211 1
     248      240      211 1
     249      241      211 1
     250      213      212 1
     251      242      212 1
     252      243      212 1
     253      244      213 1
     254      245      213 1
     255      246      213 1
@<TRIPOS>SUBSTRUCTURE
       1 Compound        1 RESIDUE    0 **** ROOT      0
