@<TRIPOS>MOLECULE
RES
318 327 1 0 1
SMALL
NO_CHARGES
@<TRIPOS>CRYSIN
   36.5430    24.0490    27.0531    90.0000    90.0000    90.0000 1 1
@<TRIPOS>ATOM
       1 C0           8.1699     8.5206     7.3755 C0            1 RES     
       2 C1           7.5394     9.3978     8.2037 C1            1 RES     
       3 C1           8.4292     9.9459     9.0318 C1            1 RES     
       4 S2           7.3938    11.1271     9.7769 S2            1 RES     
       5 C1           5.8620    10.5685     9.2086 C1            1 RES     
       6 C1           6.1698     9.6541     8.2613 C1            1 RES     
       7 C1           9.8396     9.1805     8.6275 C1            1 RES     
       8 C1           9.5199     8.3744     7.6837 C1            1 RES     
       9 C1          10.5078     7.6783     6.8496 C1            1 RES     
      10 C1          11.7702     8.0605     7.1620 C1            1 RES     
      11 S2          11.7024     9.2771     8.4117 S2            1 RES     
      12 H3           5.4345     9.0703     7.7060 H3            1 RES     
      13 H3          10.2731     7.0662     5.9937 H3            1 RES     
      14 C0          -1.2049     9.6396    15.4676 C0            1 RES     
      15 C1          -2.5795    10.1804    14.9419 C1            1 RES     
      16 C1          -2.4248    11.1176    13.9758 C1            1 RES     
      17 S2          -3.7658    11.4533    13.1074 S2            1 RES     
      18 C1          -4.6607    10.1960    13.7754 C1            1 RES     
      19 C1          -3.8899     9.5865    14.8202 C1            1 RES     
      20 C1          -1.1975    10.7695    13.3799 C1            1 RES     
      21 C1          -0.5642     9.7483    14.0397 C1            1 RES     
      22 C1           0.5743     9.3434    13.3071 C1            1 RES     
      23 C1           0.7497    10.1099    12.1016 C1            1 RES     
      24 S2          -0.5385    11.1818    11.9315 S2            1 RES     
      25 H3          -4.1723     8.6635    15.3047 H3            1 RES     
      26 H3           1.2706     8.6223    13.6950 H3            1 RES     
      27 C1           3.0000     9.2620    11.3801 C1            1 RES     
      28 F4           2.8858     8.1877    12.1986 F4            1 RES     
      29 C1           4.2104     9.4293    10.7215 C1            1 RES     
      30 C1           4.4981    10.5077     9.8535 C1            1 RES     
      31 C1           3.4537    11.3920     9.6039 C1            1 RES     
      32 N5           3.5654    12.4556     8.7705 N5            1 RES     
      33 S2           2.0850    13.1678     8.9071 S2            1 RES     
      34 N5           1.2767    12.2047     9.9799 N5            1 RES     
      35 C1           2.1848    11.2370    10.2721 C1            1 RES     
      36 C1           1.9632    10.1807    11.2173 C1            1 RES     
      37 H3           4.9186     8.6879    10.9629 H3            1 RES     
      38 C1          -6.5628    10.6116    12.1314 C1            1 RES     
      39 F4          -6.2994    11.9413    12.1311 F4            1 RES     
      40 C1          -7.5517    10.1672    11.2374 C1            1 RES     
      41 C1          -7.8737     8.8180    11.1408 C1            1 RES     
      42 C1          -7.2139     7.9058    11.9552 C1            1 RES     
      43 N5          -7.4402     6.5750    11.8977 N5            1 RES     
      44 S2          -6.3632     5.9870    13.0034 S2            1 RES     
      45 N5          -5.5994     7.3401    13.5702 N5            1 RES     
      46 C1          -6.2037     8.3403    12.8849 C1            1 RES     
      47 C1          -5.8560     9.7039    12.9815 C1            1 RES     
      48 H3          -8.0523    10.8829    10.5971 H3            1 RES     
      49 C0           8.5271     9.9034     6.3939 C0            1 RES     
      50 C0           9.6968    11.0973     6.8833 C0            1 RES     
      51 C0          10.2062    11.8516     8.3531 C0            1 RES     
      52 C0          10.6467    11.4111     9.9605 C0            1 RES     
      53 C0          11.6577    10.4648    10.8627 C0            1 RES     
      54 C0          11.2789     8.9743    11.3491 C0            1 RES     
      55 C0          12.4979     8.0454    11.6639 C0            1 RES     
      56 C0          12.7594     6.9377    10.5779 C0            1 RES     
      57 C0          14.1190     6.2125    10.6406 C0            1 RES     
      58 C0          15.2440     7.2482    10.7412 C0            1 RES     
      59 C0          16.6685     6.7294    10.5481 C0            1 RES     
      60 C0          17.2767     6.9683     9.1320 C0            1 RES     
      61 C0          18.7948     6.6142     9.1240 C0            1 RES     
      62 C0          19.6018     7.4001    10.1806 C0            1 RES     
      63 C0          21.1029     7.1323    10.1025 C0            1 RES     
      64 C0          21.8342     7.9086    11.1953 C0            1 RES     
      65 C0          16.4833     6.2366     8.0141 C0            1 RES     
      66 C0          17.0267     6.5136     6.5954 C0            1 RES     
      67 C0          16.1071     5.9346     5.5079 C0            1 RES     
      68 C0          16.7011     6.0504     4.0878 C0            1 RES     
      69 C0          17.0255     7.4783     3.6085 C0            1 RES     
      70 C0          15.7972     8.3815     3.5221 C0            1 RES     
      71 H6           8.9021     9.5448     5.4093 H6            1 RES     
      72 H6           7.5901    10.4442     6.0895 H6            1 RES     
      73 H6          10.6435    10.6733     6.5109 H6            1 RES     
      74 H6           9.5405    11.9501     6.1886 H6            1 RES     
      75 H6           9.4214    12.6162     8.5297 H6            1 RES     
      76 H6          11.0889    12.4352     8.0276 H6            1 RES     
      77 H6           9.7458    11.2419    10.5200 H6            1 RES     
      78 H6          11.0448    12.3460    10.2798 H6            1 RES     
      79 H6          12.6708    10.5075    10.4216 H6            1 RES     
      80 H6          11.8509    10.9467    11.8443 H6            1 RES     
      81 H6          10.6368     8.3671    10.6991 H6            1 RES     
      82 H6          10.6933     9.0887    12.2859 H6            1 RES     
      83 H6          12.3458     7.4962    12.6182 H6            1 RES     
      84 H6          13.3579     8.7202    11.8047 H6            1 RES     
      85 H6          12.7779     7.3820     9.5867 H6            1 RES     
      86 H6          11.9361     6.1860    10.5800 H6            1 RES     
      87 H6          14.1782     5.5199    11.5096 H6            1 RES     
      88 H6          14.2158     5.5938     9.7192 H6            1 RES     
      89 H6          15.0821     8.1169    10.0620 H6            1 RES     
      90 H6          15.1818     7.6103    11.7884 H6            1 RES     
      91 H6          17.2413     7.3843    11.2272 H6            1 RES     
      92 H6          16.7803     5.6858    10.9154 H6            1 RES     
      93 H6          17.1986     8.0590     8.9181 H6            1 RES     
      94 H6          19.2218     6.8834     8.1363 H6            1 RES     
      95 H6          18.9318     5.5233     9.2868 H6            1 RES     
      96 H6          19.2911     7.1009    11.2012 H6            1 RES     
      97 H6          19.4204     8.4899    10.0409 H6            1 RES     
      98 H6          21.2935     6.0456    10.2407 H6            1 RES     
      99 H6          21.4901     7.4434     9.1061 H6            1 RES     
     100 H6          22.9227     7.7041    11.1422 H6            1 RES     
     101 H6          21.4651     7.6015    12.1989 H6            1 RES     
     102 H6          21.6673     9.0009    11.0733 H6            1 RES     
     103 H6          16.4773     5.1403     8.1990 H6            1 RES     
     104 H6          15.4369     6.6074     8.0413 H6            1 RES     
     105 H6          18.0298     6.0520     6.4873 H6            1 RES     
     106 H6          17.1079     7.6116     6.4459 H6            1 RES     
     107 H6          15.9498     4.8520     5.7088 H6            1 RES     
     108 H6          15.1153     6.4338     5.5524 H6            1 RES     
     109 H6          17.6427     5.4599     4.0544 H6            1 RES     
     110 H6          15.9899     5.5863     3.3697 H6            1 RES     
     111 H6          17.7851     7.9449     4.2695 H6            1 RES     
     112 H6          17.4699     7.4053     2.5917 H6            1 RES     
     113 H6          15.0446     7.9435     2.8328 H6            1 RES     
     114 H6          15.3429     8.5300     4.5228 H6            1 RES     
     115 H6          16.1011     9.3750     3.1285 H6            1 RES     
     116 C0           7.7109     7.3093     8.4376 C0            1 RES     
     117 C0           7.3964     7.5497    10.0921 C0            1 RES     
     118 C0           7.8803     8.4037    11.4782 C0            1 RES     
     119 C0           7.4460     9.8441    12.2434 C0            1 RES     
     120 C0           8.2105    11.2098    12.8495 C0            1 RES     
     121 C0           9.1907    12.4965    12.5294 C0            1 RES     
     122 C0           9.0047    13.7319    11.5053 C0            1 RES     
     123 C0          10.2544    14.6794    11.2957 C0            1 RES     
     124 C0          10.0819    15.9433    10.3816 C0            1 RES     
     125 C0           9.8381    15.7232     8.8536 C0            1 RES     
     126 C0           9.9691    17.0763     8.0590 C0            1 RES     
     127 C0           9.9725    17.0209     6.4757 C0            1 RES     
     128 C0          10.0664    18.4555     5.8725 C0            1 RES     
     129 C0           8.8665    19.3775     6.1433 C0            1 RES     
     130 C0           9.0593    20.7137     5.3975 C0            1 RES     
     131 C0           7.8682    21.6509     5.5928 C0            1 RES     
     132 C0          11.1792    16.1492     5.9945 C0            1 RES     
     133 C0          11.4235    16.1434     4.4709 C0            1 RES     
     134 C0          12.5682    15.1942     4.0842 C0            1 RES     
     135 C0          12.9866    15.3158     2.6023 C0            1 RES     
     136 C0          11.8774    15.0429     1.5718 C0            1 RES     
     137 C0          11.3137    13.6274     1.6584 C0            1 RES     
     138 H6           6.7700     6.8665     8.0344 H6            1 RES     
     139 H6           8.3963     6.4255     8.3572 H6            1 RES     
     140 H6           6.3382     7.7379    10.0310 H6            1 RES     
     141 H6           7.4172     6.4936    10.4407 H6            1 RES     
     142 H6           7.2315     7.7738    12.1252 H6            1 RES     
     143 H6           8.8552     8.0621    11.8211 H6            1 RES     
     144 H6           7.0681     9.4810    13.2318 H6            1 RES     
     145 H6           6.4586    10.1560    11.8685 H6            1 RES     
     146 H6           7.3526    11.7392    13.3263 H6            1 RES     
     147 H6           8.7842    10.7651    13.6929 H6            1 RES     
     148 H6          10.1891    12.1000    12.3862 H6            1 RES     
     149 H6           9.3215    13.0134    13.5098 H6            1 RES     
     150 H6           8.2935    14.4486    11.9063 H6            1 RES     
     151 H6           8.6615    13.3921    10.5198 H6            1 RES     
     152 H6          11.1445    14.1878    10.8957 H6            1 RES     
     153 H6          10.5735    15.0417    12.2947 H6            1 RES     
     154 H6           9.3088    16.6201    10.7985 H6            1 RES     
     155 H6          11.0594    16.4763    10.4513 H6            1 RES     
     156 H6          10.6090    15.0166     8.4940 H6            1 RES     
     157 H6           8.8340    15.2793     8.6800 H6            1 RES     
     158 H6           9.1476    17.7330     8.4175 H6            1 RES     
     159 H6          10.9297    17.5544     8.3628 H6            1 RES     
     160 H6           9.0292    16.5521     6.1269 H6            1 RES     
     161 H6          10.0941    18.3623     4.7748 H6            1 RES     
     162 H6          11.0041    18.9428     6.2178 H6            1 RES     
     163 H6           8.7597    19.5846     7.2259 H6            1 RES     
     164 H6           7.9412    18.8865     5.7698 H6            1 RES     
     165 H6           9.9759    21.2203     5.7681 H6            1 RES     
     166 H6           9.1757    20.5283     4.3072 H6            1 RES     
     167 H6           8.0508    22.6012     5.0452 H6            1 RES     
     168 H6           7.7305    21.8821     6.6692 H6            1 RES     
     169 H6           6.9425    21.1865     5.1922 H6            1 RES     
     170 H6          12.1134    16.5178     6.4782 H6            1 RES     
     171 H6          11.0102    15.0986     6.3195 H6            1 RES     
     172 H6          11.7259    17.1597     4.1402 H6            1 RES     
     173 H6          10.4923    15.8425     3.9443 H6            1 RES     
     174 H6          13.4658    15.4489     4.6898 H6            1 RES     
     175 H6          12.2834    14.1489     4.3261 H6            1 RES     
     176 H6          13.3664    16.3462     2.4266 H6            1 RES     
     177 H6          13.8294    14.6144     2.4173 H6            1 RES     
     178 H6          11.0550    15.7795     1.6873 H6            1 RES     
     179 H6          12.3100    15.1825     0.5565 H6            1 RES     
     180 H6          12.1233    12.8814     1.5116 H6            1 RES     
     181 H6          10.8249    13.4569     2.6391 H6            1 RES     
     182 H6          10.5518    13.4876     0.8627 H6            1 RES     
     183 C0          -0.2125    10.6289    16.2215 C0            1 RES     
     184 C0           1.3055    10.1703    16.3670 C0            1 RES     
     185 C0           1.9310     9.4661    17.6049 C0            1 RES     
     186 C0           1.6345     8.0014    18.0340 C0            1 RES     
     187 C0           2.4446     7.6168    19.3080 C0            1 RES     
     188 C0           3.7963     7.0076    18.9528 C0            1 RES     
     189 C0           4.7062     6.7345    20.1686 C0            1 RES     
     190 C0           5.8263     5.7998    19.6994 C0            1 RES     
     191 C0           6.9842     5.5405    20.6725 C0            1 RES     
     192 C0           7.9007     6.7750    20.8640 C0            1 RES     
     193 C0           9.3980     6.4029    21.0149 C0            1 RES     
     194 C0          10.1709     6.2766    19.6473 C0            1 RES     
     195 C0          11.6591     5.8927    19.8307 C0            1 RES     
     196 C0          12.4615     6.8635    20.7040 C0            1 RES     
     197 C0          13.9506     6.4914    20.6767 C0            1 RES     
     198 C0          14.7734     7.4277    21.5534 C0            1 RES     
     199 C0           9.4912     5.3101    18.6413 C0            1 RES     
     200 C0          10.1126     5.3228    17.2333 C0            1 RES     
     201 C0           9.1843     4.6273    16.2244 C0            1 RES     
     202 C0           9.6767     4.7456    14.7732 C0            1 RES     
     203 C0           9.9436     6.1983    14.3091 C0            1 RES     
     204 C0           8.7638     7.1276    14.5223 C0            1 RES     
     205 H6          -0.1684    11.5633    15.6175 H6            1 RES     
     206 H6          -0.5963    11.0207    17.1551 H6            1 RES     
     207 H6           1.6848     9.6578    15.4839 H6            1 RES     
     208 H6           1.8524    11.1395    16.3735 H6            1 RES     
     209 H6           3.0302     9.5108    17.4487 H6            1 RES     
     210 H6           1.7039    10.1259    18.4361 H6            1 RES     
     211 H6           1.8020     7.2645    17.2200 H6            1 RES     
     212 H6           0.5890     7.9003    18.3225 H6            1 RES     
     213 H6           2.5531     8.4911    19.9870 H6            1 RES     
     214 H6           1.8954     6.8305    19.8753 H6            1 RES     
     215 H6           4.3505     7.6622    18.2468 H6            1 RES     
     216 H6           3.5648     6.0477    18.4368 H6            1 RES     
     217 H6           4.1554     6.2293    20.9937 H6            1 RES     
     218 H6           5.1019     7.7040    20.5452 H6            1 RES     
     219 H6           6.2625     6.1949    18.7568 H6            1 RES     
     220 H6           5.3536     4.8198    19.4641 H6            1 RES     
     221 H6           6.6565     5.1304    21.6527 H6            1 RES     
     222 H6           7.5531     4.7174    20.2094 H6            1 RES     
     223 H6           7.8263     7.4986    20.0216 H6            1 RES     
     224 H6           7.5278     7.3029    21.7682 H6            1 RES     
     225 H6           9.8784     7.2466    21.5489 H6            1 RES     
     226 H6           9.5068     5.4936    21.6456 H6            1 RES     
     227 H6          10.1359     7.2884    19.1778 H6            1 RES     
     228 H6          12.1453     5.9034    18.8336 H6            1 RES     
     229 H6          11.7351     4.8649    20.2475 H6            1 RES     
     230 H6          12.0939     6.8228    21.7505 H6            1 RES     
     231 H6          12.3430     7.8989    20.3133 H6            1 RES     
     232 H6          14.0887     5.4492    21.0331 H6            1 RES     
     233 H6          14.3300     6.5630    19.6305 H6            1 RES     
     234 H6          15.8454     7.1416    21.4975 H6            1 RES     
     235 H6          14.4389     7.3532    22.6096 H6            1 RES     
     236 H6          14.6675     8.4787    21.2074 H6            1 RES     
     237 H6           9.4558     4.2699    19.0324 H6            1 RES     
     238 H6           8.4642     5.6904    18.4931 H6            1 RES     
     239 H6          11.1070     4.8366    17.2252 H6            1 RES     
     240 H6          10.2210     6.3879    16.9551 H6            1 RES     
     241 H6           9.0729     3.5522    16.4918 H6            1 RES     
     242 H6           8.1700     5.0843    16.2845 H6            1 RES     
     243 H6          10.6152     4.1657    14.6529 H6            1 RES     
     244 H6           8.9047     4.2859    14.1189 H6            1 RES     
     245 H6          10.8261     6.6113    14.8307 H6            1 RES     
     246 H6          10.1934     6.1921    13.2206 H6            1 RES     
     247 H6           7.8629     6.7406    14.0082 H6            1 RES     
     248 H6           8.5204     7.2577    15.5993 H6            1 RES     
     249 H6           9.0178     8.1418    14.1510 H6            1 RES     
     250 C0          -1.4929     8.5149    16.5297 C0            1 RES     
     251 C0          -2.1979     9.1375    17.8573 C0            1 RES     
     252 C0          -1.7921     8.9959    19.4035 C0            1 RES     
     253 C0          -0.5580     9.6219    20.1826 C0            1 RES     
     254 C0          -0.2513    11.1433    20.1360 C0            1 RES     
     255 C0           1.1549    11.5037    20.7382 C0            1 RES     
     256 C0           1.6279    12.9388    20.3535 C0            1 RES     
     257 C0           3.0102    12.9748    19.6326 C0            1 RES     
     258 C0           3.4917    14.3883    19.1884 C0            1 RES     
     259 C0           2.4001    15.1747    18.4332 C0            1 RES     
     260 C0           2.7936    16.5816    17.9231 C0            1 RES     
     261 C0           3.1716    16.6730    16.4174 C0            1 RES     
     262 C0           3.2876    18.1512    15.9346 C0            1 RES     
     263 C0           1.9996    18.9742    16.1075 C0            1 RES     
     264 C0           2.1345    20.3505    15.4461 C0            1 RES     
     265 C0           0.8562    21.1652    15.6178 C0            1 RES     
     266 C0           4.4491    15.8697    16.0655 C0            1 RES     
     267 C0           4.6844    15.8428    14.5467 C0            1 RES     
     268 C0           5.7474    14.8339    14.1291 C0            1 RES     
     269 C0           5.8552    14.7225    12.6000 C0            1 RES     
     270 C0           4.5656    14.4305    11.8388 C0            1 RES     
     271 C0           3.9430    13.1323    12.3296 C0            1 RES     
     272 H6          -0.5925     7.9456    16.7258 H6            1 RES     
     273 H6          -2.1637     7.7465    16.0879 H6            1 RES     
     274 H6          -2.4756    10.1974    17.6918 H6            1 RES     
     275 H6          -3.2049     8.6655    17.8353 H6            1 RES     
     276 H6          -2.6676     9.4105    19.9500 H6            1 RES     
     277 H6          -1.7724     7.9075    19.6261 H6            1 RES     
     278 H6           0.3461     9.1201    19.8980 H6            1 RES     
     279 H6          -0.6668     9.3516    21.2576 H6            1 RES     
     280 H6          -0.2100    11.4396    19.0901 H6            1 RES     
     281 H6          -1.0517    11.7362    20.6268 H6            1 RES     
     282 H6           1.9187    10.7996    20.3657 H6            1 RES     
     283 H6           1.1973    11.3523    21.8377 H6            1 RES     
     284 H6           1.6270    13.5925    21.2513 H6            1 RES     
     285 H6           0.8901    13.3506    19.6384 H6            1 RES     
     286 H6           2.9337    12.3456    18.7195 H6            1 RES     
     287 H6           3.7970    12.5311    20.2838 H6            1 RES     
     288 H6           3.7779    14.9794    20.0861 H6            1 RES     
     289 H6           4.4043    14.2641    18.5692 H6            1 RES     
     290 H6           1.9452    14.5812    17.6105 H6            1 RES     
     291 H6           1.6160    15.3529    19.1981 H6            1 RES     
     292 H6           1.8492    17.1520    18.0087 H6            1 RES     
     293 H6           3.5313    17.0725    18.5938 H6            1 RES     
     294 H6           2.3284    16.2135    15.8515 H6            1 RES     
     295 H6           3.4819    18.1562    14.8447 H6            1 RES     
     296 H6           4.1344    18.6578    16.4458 H6            1 RES     
     297 H6           1.7795    19.1268    17.1831 H6            1 RES     
     298 H6           1.1539    18.4305    15.6299 H6            1 RES     
     299 H6           2.9823    20.9047    15.9037 H6            1 RES     
     300 H6           2.3341    20.2259    14.3587 H6            1 RES     
     301 H6           0.9768    22.1542    15.1284 H6            1 RES     
     302 H6           0.6442    21.3235    16.6966 H6            1 RES     
     303 H6          -0.0030    20.6381    15.1503 H6            1 RES     
     304 H6           5.3447    16.2674    16.5906 H6            1 RES     
     305 H6           4.2829    14.8202    16.3834 H6            1 RES     
     306 H6           4.9849    16.8357    14.1525 H6            1 RES     
     307 H6           3.7206    15.5407    14.0924 H6            1 RES     
     308 H6           6.7382    15.1156    14.5468 H6            1 RES     
     309 H6           5.4872    13.8359    14.5447 H6            1 RES     
     310 H6           6.2950    15.6612    12.1871 H6            1 RES     
     311 H6           6.4862    13.8468    12.4037 H6            1 RES     
     312 H6           3.8483    15.2693    11.9402 H6            1 RES     
     313 H6           4.8019    14.3353    10.7576 H6            1 RES     
     314 H6           4.6361    12.2829    12.1365 H6            1 RES     
     315 H6           3.6962    13.1676    13.4055 H6            1 RES     
     316 H6           2.9960    12.9982    11.8017 H6            1 RES     
     317 H7          12.6595     7.8052     6.6104 H7            1 RES     
     318 H3          -8.6203     8.4896    10.4232 H3            1 RES     
@<TRIPOS>BOND
       1        1        2 1
       2        1        8 1
       3        1       49 1
       4        1      116 1
       5        2        3 1
       6        2        6 1
       7        3        4 1
       8        3        7 1
       9        4        5 1
      10        5        6 1
      11        5       30 1
      12        6       12 1
      13        7        8 1
      14        7       11 1
      15        8        9 1
      16        9       10 1
      17        9       13 1
      18       10       11 1
      19       10      317 1
      20       14       15 1
      21       14       21 1
      22       14      183 1
      23       14      250 1
      24       15       16 1
      25       15       19 1
      26       16       17 1
      27       16       20 1
      28       17       18 1
      29       18       19 1
      30       18       47 1
      31       19       25 1
      32       20       21 1
      33       20       24 1
      34       21       22 1
      35       22       23 1
      36       22       26 1
      37       23       24 1
      38       23       36 1
      39       27       28 1
      40       27       29 1
      41       27       36 1
      42       29       30 1
      43       29       37 1
      44       30       31 1
      45       31       32 1
      46       31       35 1
      47       32       33 1
      48       33       34 1
      49       34       35 1
      50       35       36 1
      51       38       39 1
      52       38       40 1
      53       38       47 1
      54       40       41 1
      55       40       48 1
      56       41       42 1
      57       41      318 1
      58       42       43 1
      59       42       46 1
      60       43       44 1
      61       44       45 1
      62       45       46 1
      63       46       47 1
      64       49       50 1
      65       49       71 1
      66       49       72 1
      67       50       51 1
      68       50       73 1
      69       50       74 1
      70       51       52 1
      71       51       75 1
      72       51       76 1
      73       52       53 1
      74       52       77 1
      75       52       78 1
      76       53       54 1
      77       53       79 1
      78       53       80 1
      79       54       55 1
      80       54       81 1
      81       54       82 1
      82       55       56 1
      83       55       83 1
      84       55       84 1
      85       56       57 1
      86       56       85 1
      87       56       86 1
      88       57       58 1
      89       57       87 1
      90       57       88 1
      91       58       59 1
      92       58       89 1
      93       58       90 1
      94       59       60 1
      95       59       91 1
      96       59       92 1
      97       60       61 1
      98       60       65 1
      99       60       93 1
     100       61       62 1
     101       61       94 1
     102       61       95 1
     103       62       63 1
     104       62       96 1
     105       62       97 1
     106       63       64 1
     107       63       98 1
     108       63       99 1
     109       64      100 1
     110       64      101 1
     111       64      102 1
     112       65       66 1
     113       65      103 1
     114       65      104 1
     115       66       67 1
     116       66      105 1
     117       66      106 1
     118       67       68 1
     119       67      107 1
     120       67      108 1
     121       68       69 1
     122       68      109 1
     123       68      110 1
     124       69       70 1
     125       69      111 1
     126       69      112 1
     127       70      113 1
     128       70      114 1
     129       70      115 1
     130      116      117 1
     131      116      138 1
     132      116      139 1
     133      117      118 1
     134      117      140 1
     135      117      141 1
     136      118      119 1
     137      118      142 1
     138      118      143 1
     139      119      120 1
     140      119      144 1
     141      119      145 1
     142      120      121 1
     143      120      146 1
     144      120      147 1
     145      121      122 1
     146      121      148 1
     147      121      149 1
     148      122      123 1
     149      122      150 1
     150      122      151 1
     151      123      124 1
     152      123      152 1
     153      123      153 1
     154      124      125 1
     155      124      154 1
     156      124      155 1
     157      125      126 1
     158      125      156 1
     159      125      157 1
     160      126      127 1
     161      126      158 1
     162      126      159 1
     163      127      128 1
     164      127      132 1
     165      127      160 1
     166      128      129 1
     167      128      161 1
     168      128      162 1
     169      129      130 1
     170      129      163 1
     171      129      164 1
     172      130      131 1
     173      130      165 1
     174      130      166 1
     175      131      167 1
     176      131      168 1
     177      131      169 1
     178      132      133 1
     179      132      170 1
     180      132      171 1
     181      133      134 1
     182      133      172 1
     183      133      173 1
     184      134      135 1
     185      134      174 1
     186      134      175 1
     187      135      136 1
     188      135      176 1
     189      135      177 1
     190      136      137 1
     191      136      178 1
     192      136      179 1
     193      137      180 1
     194      137      181 1
     195      137      182 1
     196      183      184 1
     197      183      205 1
     198      183      206 1
     199      184      185 1
     200      184      207 1
     201      184      208 1
     202      185      186 1
     203      185      209 1
     204      185      210 1
     205      186      187 1
     206      186      211 1
     207      186      212 1
     208      187      188 1
     209      187      213 1
     210      187      214 1
     211      188      189 1
     212      188      215 1
     213      188      216 1
     214      189      190 1
     215      189      217 1
     216      189      218 1
     217      190      191 1
     218      190      219 1
     219      190      220 1
     220      191      192 1
     221      191      221 1
     222      191      222 1
     223      192      193 1
     224      192      223 1
     225      192      224 1
     226      193      194 1
     227      193      225 1
     228      193      226 1
     229      194      195 1
     230      194      199 1
     231      194      227 1
     232      195      196 1
     233      195      228 1
     234      195      229 1
     235      196      197 1
     236      196      230 1
     237      196      231 1
     238      197      198 1
     239      197      232 1
     240      197      233 1
     241      198      234 1
     242      198      235 1
     243      198      236 1
     244      199      200 1
     245      199      237 1
     246      199      238 1
     247      200      201 1
     248      200      239 1
     249      200      240 1
     250      201      202 1
     251      201      241 1
     252      201      242 1
     253      202      203 1
     254      202      243 1
     255      202      244 1
     256      203      204 1
     257      203      245 1
     258      203      246 1
     259      204      247 1
     260      204      248 1
     261      204      249 1
     262      250      251 1
     263      250      272 1
     264      250      273 1
     265      251      252 1
     266      251      274 1
     267      251      275 1
     268      252      253 1
     269      252      276 1
     270      252      277 1
     271      253      254 1
     272      253      278 1
     273      253      279 1
     274      254      255 1
     275      254      280 1
     276      254      281 1
     277      255      256 1
     278      255      282 1
     279      255      283 1
     280      256      257 1
     281      256      284 1
     282      256      285 1
     283      257      258 1
     284      257      286 1
     285      257      287 1
     286      258      259 1
     287      258      288 1
     288      258      289 1
     289      259      260 1
     290      259      290 1
     291      259      291 1
     292      260      261 1
     293      260      292 1
     294      260      293 1
     295      261      262 1
     296      261      266 1
     297      261      294 1
     298      262      263 1
     299      262      295 1
     300      262      296 1
     301      263      264 1
     302      263      297 1
     303      263      298 1
     304      264      265 1
     305      264      299 1
     306      264      300 1
     307      265      301 1
     308      265      302 1
     309      265      303 1
     310      266      267 1
     311      266      304 1
     312      266      305 1
     313      267      268 1
     314      267      306 1
     315      267      307 1
     316      268      269 1
     317      268      308 1
     318      268      309 1
     319      269      270 1
     320      269      310 1
     321      269      311 1
     322      270      271 1
     323      270      312 1
     324      270      313 1
     325      271      314 1
     326      271      315 1
     327      271      316 1
@<TRIPOS>SUBSTRUCTURE
       1 RES             1 RESIDUE    0 **** ROOT      0
