@<TRIPOS>MOLECULE
PCPDTPT_ene_HD
146 150 1 0 1
SMALL
NO_CHARGES
@<TRIPOS>CRYSIN
   30.4475    21.1163    12.9153    90.0000    90.0000    90.0000  1  1
@<TRIPOS>ATOM
       1 C           -0.1945     0.4735    -0.5958 C             1 PCPDTPT_ene_HD
       2 C            0.0155     1.3826     0.6390 C             1 PCPDTPT_ene_HD
       3 C            0.6056    -0.5900    -0.8388 C             1 PCPDTPT_ene_HD
       4 C            0.1281    -1.3773    -1.8953 C             1 PCPDTPT_ene_HD
       5 S            0.8790    -2.9829    -2.0602 S             1 PCPDTPT_ene_HD
       6 C            2.0154    -2.4295    -0.7537 C             1 PCPDTPT_ene_HD
       7 C            1.7579    -1.2303    -0.2217 C             1 PCPDTPT_ene_HD
       8 C           -0.9571    -0.8299    -2.3732 C             1 PCPDTPT_ene_HD
       9 C           -1.2438     0.4865    -1.7386 C             1 PCPDTPT_ene_HD
      10 C           -2.7049     0.3437    -1.5026 C             1 PCPDTPT_ene_HD
      11 C           -3.2995    -0.7320    -2.0564 C             1 PCPDTPT_ene_HD
      12 S           -2.2530    -1.7347    -3.1481 S             1 PCPDTPT_ene_HD
      13 H            2.3638    -0.8310     0.5580 H             1 PCPDTPT_ene_HD
      14 H           -3.2538     1.0437    -0.9211 H             1 PCPDTPT_ene_HD
      15 N           -5.5185    -0.1284    -1.3260 N             1 PCPDTPT_ene_HD
      16 C           -6.8950    -0.3507    -0.9878 C             1 PCPDTPT_ene_HD
      17 C           -7.4475    -1.5758    -1.0734 C             1 PCPDTPT_ene_HD
      18 C           -6.6036    -2.6845    -1.5269 C             1 PCPDTPT_ene_HD
      19 N           -7.0187    -3.9729    -1.5970 N             1 PCPDTPT_ene_HD
      20 S           -5.6541    -4.7476    -2.1158 S             1 PCPDTPT_ene_HD
      21 N           -4.5438    -3.5308    -2.2630 N             1 PCPDTPT_ene_HD
      22 C           -5.2604    -2.4381    -1.8952 C             1 PCPDTPT_ene_HD
      23 C           -4.7276    -1.0556    -1.7776 C             1 PCPDTPT_ene_HD
      24 H           -7.5031     0.4805    -0.6566 H             1 PCPDTPT_ene_HD
      25 C           -1.1540     2.2466     1.2023 C             1 PCPDTPT_ene_HD
      26 C           -2.4929     1.6353     1.7815 C             1 PCPDTPT_ene_HD
      27 C           -2.3492     0.2469     2.4828 C             1 PCPDTPT_ene_HD
      28 C           -2.5124    -0.9061     1.4685 C             1 PCPDTPT_ene_HD
      29 C           -2.5785    -2.3174     2.0511 C             1 PCPDTPT_ene_HD
      30 C           -1.2499    -2.7634     2.6607 C             1 PCPDTPT_ene_HD
      31 C           -1.2978    -4.2552     2.9923 C             1 PCPDTPT_ene_HD
      32 C           -0.0666    -4.8129     3.7360 C             1 PCPDTPT_ene_HD
      33 C            1.3008    -4.6590     3.0391 C             1 PCPDTPT_ene_HD
      34 C            1.9626    -3.2892     3.2402 C             1 PCPDTPT_ene_HD
      35 C           -3.1529     2.6424     2.7697 C             1 PCPDTPT_ene_HD
      36 C           -3.6130     3.9856     2.1563 C             1 PCPDTPT_ene_HD
      37 C           -4.7563     3.9145     1.1131 C             1 PCPDTPT_ene_HD
      38 C           -6.0518     3.2847     1.6721 C             1 PCPDTPT_ene_HD
      39 C           -7.2637     3.3643     0.7169 C             1 PCPDTPT_ene_HD
      40 C           -7.7956     4.8020     0.5369 C             1 PCPDTPT_ene_HD
      41 C           -9.0283     4.9131    -0.3848 C             1 PCPDTPT_ene_HD
      42 C          -10.2769     4.1892     0.1560 C             1 PCPDTPT_ene_HD
      43 C          -11.5124     4.3435    -0.7528 C             1 PCPDTPT_ene_HD
      44 C          -12.0334     5.7789    -0.8433 C             1 PCPDTPT_ene_HD
      45 H           -1.3819     3.0801     0.5052 H             1 PCPDTPT_ene_HD
      46 H           -0.6879     2.6798     2.0982 H             1 PCPDTPT_ene_HD
      47 H           -3.2598     1.5089     1.0191 H             1 PCPDTPT_ene_HD
      48 H           -1.4195     0.1929     3.0879 H             1 PCPDTPT_ene_HD
      49 H           -3.2090     0.1021     3.1729 H             1 PCPDTPT_ene_HD
      50 H           -1.7094    -0.8990     0.7289 H             1 PCPDTPT_ene_HD
      51 H           -3.4798    -0.7548     0.9423 H             1 PCPDTPT_ene_HD
      52 H           -2.8137    -2.9955     1.1988 H             1 PCPDTPT_ene_HD
      53 H           -3.4039    -2.3994     2.7918 H             1 PCPDTPT_ene_HD
      54 H           -1.0338    -2.1614     3.5711 H             1 PCPDTPT_ene_HD
      55 H           -0.4693    -2.6057     1.8911 H             1 PCPDTPT_ene_HD
      56 H           -2.1811    -4.4587     3.6336 H             1 PCPDTPT_ene_HD
      57 H           -1.4276    -4.8210     2.0415 H             1 PCPDTPT_ene_HD
      58 H           -0.2642    -5.9040     3.8280 H             1 PCPDTPT_ene_HD
      59 H           -0.0069    -4.4027     4.7671 H             1 PCPDTPT_ene_HD
      60 H            1.9913    -5.3867     3.5181 H             1 PCPDTPT_ene_HD
      61 H            1.2225    -4.9244     1.9625 H             1 PCPDTPT_ene_HD
      62 H            1.4146    -2.4500     2.7877 H             1 PCPDTPT_ene_HD
      63 H            2.9726    -3.3013     2.7804 H             1 PCPDTPT_ene_HD
      64 H            2.0761    -3.0828     4.3257 H             1 PCPDTPT_ene_HD
      65 H           -2.4348     2.8533     3.5913 H             1 PCPDTPT_ene_HD
      66 H           -4.0439     2.1812     3.2442 H             1 PCPDTPT_ene_HD
      67 H           -2.7438     4.5034     1.7027 H             1 PCPDTPT_ene_HD
      68 H           -3.9720     4.6252     2.9925 H             1 PCPDTPT_ene_HD
      69 H           -4.4327     3.3581     0.2077 H             1 PCPDTPT_ene_HD
      70 H           -4.9567     4.9623     0.8109 H             1 PCPDTPT_ene_HD
      71 H           -5.8527     2.2103     1.8708 H             1 PCPDTPT_ene_HD
      72 H           -6.3315     3.7709     2.6321 H             1 PCPDTPT_ene_HD
      73 H           -7.0008     2.9204    -0.2674 H             1 PCPDTPT_ene_HD
      74 H           -8.0679     2.7510     1.1736 H             1 PCPDTPT_ene_HD
      75 H           -7.0012     5.4305     0.0870 H             1 PCPDTPT_ene_HD
      76 H           -8.0545     5.2282     1.5313 H             1 PCPDTPT_ene_HD
      77 H           -9.2549     5.9955    -0.4787 H             1 PCPDTPT_ene_HD
      78 H           -8.7747     4.5213    -1.3937 H             1 PCPDTPT_ene_HD
      79 H          -10.5252     4.5648     1.1727 H             1 PCPDTPT_ene_HD
      80 H          -10.0627     3.1031     0.2262 H             1 PCPDTPT_ene_HD
      81 H          -12.3297     3.7179    -0.3316 H             1 PCPDTPT_ene_HD
      82 H          -11.2809     3.9661    -1.7722 H             1 PCPDTPT_ene_HD
      83 H          -11.2885     6.4539    -1.3110 H             1 PCPDTPT_ene_HD
      84 H          -12.2934     6.1590     0.1676 H             1 PCPDTPT_ene_HD
      85 H          -12.9490     5.7991    -1.4723 H             1 PCPDTPT_ene_HD
      86 C            1.3590     2.1769     0.4758 C             1 PCPDTPT_ene_HD
      87 C            2.0701     2.8948     1.6873 C             1 PCPDTPT_ene_HD
      88 C            1.5927     4.3339     2.0376 C             1 PCPDTPT_ene_HD
      89 C            1.7427     5.3429     0.8864 C             1 PCPDTPT_ene_HD
      90 C            1.6677     6.8066     1.3696 C             1 PCPDTPT_ene_HD
      91 C            0.3387     7.1777     2.0440 C             1 PCPDTPT_ene_HD
      92 C            0.3369     8.6577     2.4505 C             1 PCPDTPT_ene_HD
      93 C           -0.8609     9.1299     3.3028 C             1 PCPDTPT_ene_HD
      94 C           -2.2590     9.0252     2.6646 C             1 PCPDTPT_ene_HD
      95 C           -2.8961     7.6355     2.7632 C             1 PCPDTPT_ene_HD
      96 C            2.1456     2.0817     3.0120 C             1 PCPDTPT_ene_HD
      97 C            2.7184     0.6621     2.9312 C             1 PCPDTPT_ene_HD
      98 C            4.1104     0.5231     2.2748 C             1 PCPDTPT_ene_HD
      99 C            5.2387     1.2425     3.0385 C             1 PCPDTPT_ene_HD
     100 C            6.6194     1.1050     2.3562 C             1 PCPDTPT_ene_HD
     101 C            7.1418    -0.3457     2.3093 C             1 PCPDTPT_ene_HD
     102 C            8.4961    -0.4993     1.5886 C             1 PCPDTPT_ene_HD
     103 C            9.6647     0.2108     2.2951 C             1 PCPDTPT_ene_HD
     104 C           11.0098     0.0301     1.5661 C             1 PCPDTPT_ene_HD
     105 C           11.5048    -1.4177     1.5375 C             1 PCPDTPT_ene_HD
     106 H            1.2726     2.8817    -0.3769 H             1 PCPDTPT_ene_HD
     107 H            2.0995     1.4278     0.1430 H             1 PCPDTPT_ene_HD
     108 H            3.1198     3.0469     1.3490 H             1 PCPDTPT_ene_HD
     109 H            0.5626     4.3589     2.4350 H             1 PCPDTPT_ene_HD
     110 H            2.2605     4.6946     2.8524 H             1 PCPDTPT_ene_HD
     111 H            0.9783     5.1490     0.1052 H             1 PCPDTPT_ene_HD
     112 H            2.7504     5.2214     0.4318 H             1 PCPDTPT_ene_HD
     113 H            1.8251     7.4670     0.4889 H             1 PCPDTPT_ene_HD
     114 H            2.4998     6.9909     2.0857 H             1 PCPDTPT_ene_HD
     115 H            0.1941     6.5591     2.9547 H             1 PCPDTPT_ene_HD
     116 H           -0.4655     6.9912     1.3097 H             1 PCPDTPT_ene_HD
     117 H            1.2453     8.8542     3.0632 H             1 PCPDTPT_ene_HD
     118 H            0.4054     9.2821     1.5329 H             1 PCPDTPT_ene_HD
     119 H           -0.6721    10.2123     3.4800 H             1 PCPDTPT_ene_HD
     120 H           -0.8649     8.6347     4.2984 H             1 PCPDTPT_ene_HD
     121 H           -2.9330     9.6951     3.2423 H             1 PCPDTPT_ene_HD
     122 H           -2.2337     9.3920     1.6160 H             1 PCPDTPT_ene_HD
     123 H           -2.3514     6.8593     2.2094 H             1 PCPDTPT_ene_HD
     124 H           -3.9240     7.6745     2.3463 H             1 PCPDTPT_ene_HD
     125 H           -2.9630     7.3248     3.8278 H             1 PCPDTPT_ene_HD
     126 H            1.1299     2.0065     3.4560 H             1 PCPDTPT_ene_HD
     127 H            2.7723     2.6474     3.7352 H             1 PCPDTPT_ene_HD
     128 H            1.9789     0.0543     2.3881 H             1 PCPDTPT_ene_HD
     129 H            2.7632     0.2401     3.9585 H             1 PCPDTPT_ene_HD
     130 H            4.0797     0.8958     1.2306 H             1 PCPDTPT_ene_HD
     131 H            4.3297    -0.5629     2.2407 H             1 PCPDTPT_ene_HD
     132 H            5.0028     2.3272     3.0832 H             1 PCPDTPT_ene_HD
     133 H            5.2986     0.8553     4.0784 H             1 PCPDTPT_ene_HD
     134 H            6.5579     1.5139     1.3238 H             1 PCPDTPT_ene_HD
     135 H            7.3339     1.7265     2.9342 H             1 PCPDTPT_ene_HD
     136 H            6.4228    -0.9727     1.7453 H             1 PCPDTPT_ene_HD
     137 H            7.2239    -0.7495     3.3423 H             1 PCPDTPT_ene_HD
     138 H            8.7099    -1.5869     1.5462 H             1 PCPDTPT_ene_HD
     139 H            8.4031    -0.1218     0.5463 H             1 PCPDTPT_ene_HD
     140 H            9.7600    -0.1622     3.3383 H             1 PCPDTPT_ene_HD
     141 H            9.4600     1.3007     2.3299 H             1 PCPDTPT_ene_HD
     142 H           11.7748     0.6360     2.0990 H             1 PCPDTPT_ene_HD
     143 H           10.9300     0.4143     0.5259 H             1 PCPDTPT_ene_HD
     144 H           10.8176    -2.0712     0.9637 H             1 PCPDTPT_ene_HD
     145 H           11.6106    -1.8093     2.5716 H             1 PCPDTPT_ene_HD
     146 H           12.4984    -1.4571     1.0422 H             1 PCPDTPT_ene_HD
@<TRIPOS>BOND
       1        2        1 1
       2        3        1 1
       3        9        1 1
       4       25        2 1
       5       86        2 1
       6        4        3 1
       7        7        3 1
       8        5        4 1
       9        8        4 1
      10        6        5 1
      11        7        6 1
      12       13        7 1
      13        9        8 1
      14       12        8 1
      15       10        9 1
      16       11       10 1
      17       14       10 1
      18       12       11 1
      19       23       11 1
      20       16       15 1
      21       23       15 1
      22       17       16 1
      23       24       16 1
      24       18       17 1
      25       19       18 1
      26       22       18 1
      27       20       19 1
      28       21       20 1
      29       22       21 1
      30       23       22 1
      31       26       25 1
      32       45       25 1
      33       46       25 1
      34       27       26 1
      35       35       26 1
      36       47       26 1
      37       28       27 1
      38       48       27 1
      39       49       27 1
      40       29       28 1
      41       50       28 1
      42       51       28 1
      43       30       29 1
      44       52       29 1
      45       53       29 1
      46       31       30 1
      47       54       30 1
      48       55       30 1
      49       32       31 1
      50       56       31 1
      51       57       31 1
      52       33       32 1
      53       58       32 1
      54       59       32 1
      55       34       33 1
      56       60       33 1
      57       61       33 1
      58       62       34 1
      59       63       34 1
      60       64       34 1
      61       36       35 1
      62       65       35 1
      63       66       35 1
      64       37       36 1
      65       67       36 1
      66       68       36 1
      67       38       37 1
      68       69       37 1
      69       70       37 1
      70       39       38 1
      71       71       38 1
      72       72       38 1
      73       40       39 1
      74       73       39 1
      75       74       39 1
      76       41       40 1
      77       75       40 1
      78       76       40 1
      79       42       41 1
      80       77       41 1
      81       78       41 1
      82       43       42 1
      83       79       42 1
      84       80       42 1
      85       44       43 1
      86       81       43 1
      87       82       43 1
      88       83       44 1
      89       84       44 1
      90       85       44 1
      91       87       86 1
      92      106       86 1
      93      107       86 1
      94       88       87 1
      95       96       87 1
      96      108       87 1
      97       89       88 1
      98      109       88 1
      99      110       88 1
     100       90       89 1
     101      111       89 1
     102      112       89 1
     103       91       90 1
     104      113       90 1
     105      114       90 1
     106       92       91 1
     107      115       91 1
     108      116       91 1
     109       93       92 1
     110      117       92 1
     111      118       92 1
     112       94       93 1
     113      119       93 1
     114      120       93 1
     115       95       94 1
     116      121       94 1
     117      122       94 1
     118      123       95 1
     119      124       95 1
     120      125       95 1
     121       97       96 1
     122      126       96 1
     123      127       96 1
     124       98       97 1
     125      128       97 1
     126      129       97 1
     127       99       98 1
     128      130       98 1
     129      131       98 1
     130      100       99 1
     131      132       99 1
     132      133       99 1
     133      101      100 1
     134      134      100 1
     135      135      100 1
     136      102      101 1
     137      136      101 1
     138      137      101 1
     139      103      102 1
     140      138      102 1
     141      139      102 1
     142      104      103 1
     143      140      103 1
     144      141      103 1
     145      105      104 1
     146      142      104 1
     147      143      104 1
     148      144      105 1
     149      145      105 1
     150      146      105 1
@<TRIPOS>SUBSTRUCTURE
       1 PCPDTPT_ene_HD        1 RESIDUE    0 **** ROOT      0
