@<TRIPOS>MOLECULE
RES
234 243 1 0 1
SMALL
NO_CHARGES
@<TRIPOS>CRYSIN
   28.3325    21.1001    28.3609    90.0000    90.0000    90.0000 1 1
@<TRIPOS>ATOM
       1 C0           9.5569     9.8800     8.8350 C0            1 RES     
       2 C1           8.9294    10.1968    10.1467 C1            1 RES     
       3 C1           9.4834    11.2274    10.8307 C1            1 RES     
       4 S2           8.4232    11.7540    12.0451 S2            1 RES     
       5 C1           7.3041    10.5096    11.6926 C1            1 RES     
       6 C1           7.7340     9.7604    10.6270 C1            1 RES     
       7 C1          10.7052    11.7223    10.1596 C1            1 RES     
       8 C1          10.8686    10.5729     9.1968 C1            1 RES     
       9 C1          12.0807    10.0278     9.1584 C1            1 RES     
      10 C1          12.9770    10.6375    10.0032 C1            1 RES     
      11 S2          12.2081    11.7447    11.1876 S2            1 RES     
      12 H3           7.1283     9.0081    10.1332 H3            1 RES     
      13 H3          12.3378     9.1129     8.6598 H3            1 RES     
      14 C0          -0.9759     7.3369    14.0116 C0            1 RES     
      15 C1          -2.1869     7.4916    13.0098 C1            1 RES     
      16 C1          -1.8040     8.1938    11.9061 C1            1 RES     
      17 S2          -3.0029     8.5668    10.8494 S2            1 RES     
      18 C1          -4.1987     7.8339    11.7943 C1            1 RES     
      19 C1          -3.5951     7.2382    12.9547 C1            1 RES     
      20 C1          -0.4525     8.5177    11.9672 C1            1 RES     
      21 C1           0.0588     8.0110    13.1066 C1            1 RES     
      22 C1           1.3965     8.2958    13.2259 C1            1 RES     
      23 C1           1.8405     9.0834    12.1811 C1            1 RES     
      24 S2           0.6131     9.4310    11.0591 S2            1 RES     
      25 H3          -4.1476     6.7421    13.7407 H3            1 RES     
      26 H3           2.0374     8.0308    14.0406 H3            1 RES     
      27 C1           4.2186     8.6064    12.4026 C1            1 RES     
      28 F4           3.9289     7.3031    12.6559 F4            1 RES     
      29 C1           5.5432     8.9709    12.3194 C1            1 RES     
      30 C1           5.9127    10.2875    12.0188 C1            1 RES     
      31 C1           4.9231    11.2478    11.7819 C1            1 RES     
      32 N5           5.1654    12.5351    11.4254 N5            1 RES     
      33 S2           3.6380    13.1349    11.2175 S2            1 RES     
      34 N5           2.6586    11.8407    11.5272 N5            1 RES     
      35 C1           3.5555    10.8635    11.8180 C1            1 RES     
      36 C1           3.2101     9.5431    12.1331 C1            1 RES     
      37 H3           6.2962     8.2033    12.4523 H3            1 RES     
      38 C1          -6.0833     9.0664    10.6254 C1            1 RES     
      39 F4          -5.2518    10.0880    10.3062 F4            1 RES     
      40 C1          -7.4137     9.1963    10.2053 C1            1 RES     
      41 C1          -8.3497     8.2057    10.4850 C1            1 RES     
      42 C1          -7.9443     7.0849    11.2031 C1            1 RES     
      43 N5          -8.7812     6.0609    11.4964 N5            1 RES     
      44 S2          -7.7895     5.0235    12.3133 S2            1 RES     
      45 N5          -6.3279     5.7977    12.3342 N5            1 RES     
      46 C1          -6.5962     6.9468    11.6647 C1            1 RES     
      47 C1          -5.6378     7.9335    11.3764 C1            1 RES     
      48 H3          -7.7162    10.0776     9.6510 H3            1 RES     
      49 C0           8.5501    10.6298     7.8735 C0            1 RES     
      50 C0           8.5561    10.6186     6.3407 C0            1 RES     
      51 C0           7.2115    11.1528     5.7661 C0            1 RES     
      52 C0           5.9705    10.3207     6.2518 C0            1 RES     
      53 C0           4.6680    10.5952     5.4753 C0            1 RES     
      54 C0           3.4616     9.9539     6.2204 C0            1 RES     
      55 C0           2.1027    10.2635     5.5715 C0            1 RES     
      56 C0           0.9509     9.6239     6.3608 C0            1 RES     
      57 C0          -0.3964     9.9353     5.7129 C0            1 RES     
      58 C0           4.7912    10.0455     4.0254 C0            1 RES     
      59 C0           4.3600    11.0934     3.0036 C0            1 RES     
      60 C0           4.5910    10.5873     1.5748 C0            1 RES     
      61 C0           4.3029    11.6594     0.5147 C0            1 RES     
      62 C0           5.2737    12.8522     0.6011 C0            1 RES     
      63 C0           5.0115    13.8595    -0.5102 C0            1 RES     
      64 H6           7.5981    10.1463     8.1216 H6            1 RES     
      65 H6           8.4775    11.7034     8.1715 H6            1 RES     
      66 H6           9.4195    11.2024     5.9562 H6            1 RES     
      67 H6           8.6026     9.6079     5.9362 H6            1 RES     
      68 H6           7.0586    12.2233     6.0249 H6            1 RES     
      69 H6           7.3150    11.0967     4.6649 H6            1 RES     
      70 H6           5.7659    10.5922     7.3084 H6            1 RES     
      71 H6           6.1850     9.2301     6.1938 H6            1 RES     
      72 H6           4.5378    11.7011     5.4863 H6            1 RES     
      73 H6           3.4359    10.3415     7.2636 H6            1 RES     
      74 H6           3.6018     8.8505     6.2706 H6            1 RES     
      75 H6           1.9589    11.3653     5.5390 H6            1 RES     
      76 H6           2.0793     9.8640     4.5361 H6            1 RES     
      77 H6           1.0852     8.5202     6.3917 H6            1 RES     
      78 H6           0.9455    10.0105     7.4034 H6            1 RES     
      79 H6          -0.4262     9.5398     4.6750 H6            1 RES     
      80 H6          -0.5684    11.0325     5.6897 H6            1 RES     
      81 H6          -1.2126     9.4598     6.2969 H6            1 RES     
      82 H6           5.8455     9.8008     3.7861 H6            1 RES     
      83 H6           4.2502     9.0807     3.9060 H6            1 RES     
      84 H6           4.9918    11.9840     3.1912 H6            1 RES     
      85 H6           3.2949    11.3737     3.1427 H6            1 RES     
      86 H6           5.6442    10.2482     1.4551 H6            1 RES     
      87 H6           3.9254     9.7137     1.3998 H6            1 RES     
      88 H6           3.2523    12.0092     0.6132 H6            1 RES     
      89 H6           4.4227    11.1824    -0.4823 H6            1 RES     
      90 H6           5.1614    13.3871     1.5656 H6            1 RES     
      91 H6           6.3207    12.4864     0.5150 H6            1 RES     
      92 H6           3.9790    14.2593    -0.4262 H6            1 RES     
      93 H6           5.1431    13.3799    -1.5025 H6            1 RES     
      94 H6           5.7296    14.7024    -0.4215 H6            1 RES     
      95 C0           9.5699     8.3216     8.6939 C0            1 RES     
      96 C0          10.1814     7.7011     7.4301 C0            1 RES     
      97 C0           9.9401     6.1936     7.3549 C0            1 RES     
      98 C0          10.6234     5.4166     8.5003 C0            1 RES     
      99 C0          10.5930     3.8927     8.2520 C0            1 RES     
     100 C0          11.0102     3.1663     9.5539 C0            1 RES     
     101 C0          10.9967     1.6367     9.4514 C0            1 RES     
     102 C0          11.4228     1.0082    10.7837 C0            1 RES     
     103 C0          11.4606    -0.5130    10.6877 C0            1 RES     
     104 C0          11.5334     3.5299     7.0600 C0            1 RES     
     105 C0          10.8954     2.5277     6.0898 C0            1 RES     
     106 C0          11.8083     2.3269     4.8693 C0            1 RES     
     107 C0          11.2124     1.4046     3.7966 C0            1 RES     
     108 C0           9.9563     1.9907     3.1290 C0            1 RES     
     109 C0           9.4634     1.0856     2.0047 C0            1 RES     
     110 H6          10.0828     7.8983     9.5833 H6            1 RES     
     111 H6           8.5144     7.9728     8.7139 H6            1 RES     
     112 H6           9.7170     8.0874     6.5277 H6            1 RES     
     113 H6          11.2601     7.9002     7.3374 H6            1 RES     
     114 H6           8.8490     5.9683     7.3552 H6            1 RES     
     115 H6          10.3168     5.8921     6.3616 H6            1 RES     
     116 H6          10.0713     5.6506     9.4367 H6            1 RES     
     117 H6          11.6797     5.7412     8.6225 H6            1 RES     
     118 H6           9.5346     3.6326     8.0196 H6            1 RES     
     119 H6          10.3119     3.4671    10.3673 H6            1 RES     
     120 H6          12.0336     3.4981     9.8392 H6            1 RES     
     121 H6           9.9752     1.2901     9.1812 H6            1 RES     
     122 H6          11.7127     1.3099     8.6691 H6            1 RES     
     123 H6          12.4385     1.3700    11.0575 H6            1 RES     
     124 H6          10.7115     1.3053    11.5851 H6            1 RES     
     125 H6          12.1854    -0.8297     9.9073 H6            1 RES     
     126 H6          10.4543    -0.9088    10.4359 H6            1 RES     
     127 H6          11.7806    -0.9382    11.6622 H6            1 RES     
     128 H6          11.7548     4.4207     6.4463 H6            1 RES     
     129 H6          12.5341     3.2097     7.4218 H6            1 RES     
     130 H6           9.9285     2.9599     5.7574 H6            1 RES     
     131 H6          10.6973     1.5563     6.5869 H6            1 RES     
     132 H6          12.0324     3.3101     4.3972 H6            1 RES     
     133 H6          12.7667     1.8879     5.2215 H6            1 RES     
     134 H6          10.9858     0.4112     4.2402 H6            1 RES     
     135 H6          11.9889     1.2697     3.0119 H6            1 RES     
     136 H6           9.1358     2.1026     3.8672 H6            1 RES     
     137 H6          10.1922     2.9901     2.7011 H6            1 RES     
     138 H6           9.2011     0.0835     2.4050 H6            1 RES     
     139 H6          10.2491     0.9757     1.2269 H6            1 RES     
     140 H6           8.5607     1.5313     1.5360 H6            1 RES     
     141 C0          -1.2450     8.2164    15.2917 C0            1 RES     
     142 C0          -0.2231     9.3879    15.5492 C0            1 RES     
     143 C0          -0.5674    10.3937    16.6798 C0            1 RES     
     144 C0          -2.0430    10.4440    17.1204 C0            1 RES     
     145 C0          -3.2091    11.0259    16.2212 C0            1 RES     
     146 C0          -4.4463    10.2041    16.7036 C0            1 RES     
     147 C0          -5.7962    10.3703    16.0093 C0            1 RES     
     148 C0          -6.7435     9.2768    16.5509 C0            1 RES     
     149 C0          -8.0925     9.2876    15.8527 C0            1 RES     
     150 C0          -3.0199    10.8891    14.6811 C0            1 RES     
     151 C0          -3.3047    12.1109    13.7920 C0            1 RES     
     152 C0          -3.0324    11.6595    12.3386 C0            1 RES     
     153 C0          -3.0022    12.7333    11.2501 C0            1 RES     
     154 C0          -1.7384    13.6045    11.3220 C0            1 RES     
     155 C0          -1.6182    14.4862    10.0807 C0            1 RES     
     156 H6          -2.2371     8.6272    15.1677 H6            1 RES     
     157 H6          -1.4372     7.6132    16.1932 H6            1 RES     
     158 H6          -0.1149     9.9861    14.6250 H6            1 RES     
     159 H6           0.7983     8.9979    15.7385 H6            1 RES     
     160 H6          -0.0262    10.0219    17.5778 H6            1 RES     
     161 H6          -0.1447    11.3990    16.4579 H6            1 RES     
     162 H6          -2.0961    10.9924    18.0869 H6            1 RES     
     163 H6          -2.2379     9.3898    17.4073 H6            1 RES     
     164 H6          -3.2787    12.1139    16.4361 H6            1 RES     
     165 H6          -4.5815    10.3527    17.7991 H6            1 RES     
     166 H6          -4.1841     9.1312    16.5397 H6            1 RES     
     167 H6          -6.2017    11.3853    16.1954 H6            1 RES     
     168 H6          -5.6856    10.2133    14.9168 H6            1 RES     
     169 H6          -6.2935     8.2700    16.3831 H6            1 RES     
     170 H6          -6.8906     9.4090    17.6459 H6            1 RES     
     171 H6          -7.9576     9.1050    14.7651 H6            1 RES     
     172 H6          -8.5973    10.2613    16.0125 H6            1 RES     
     173 H6          -8.7255     8.4751    16.2704 H6            1 RES     
     174 H6          -1.9659    10.7781    14.4845 H6            1 RES     
     175 H6          -3.5493     9.9971    14.2846 H6            1 RES     
     176 H6          -2.6110    12.9290    14.0880 H6            1 RES     
     177 H6          -4.3516    12.4650    13.8923 H6            1 RES     
     178 H6          -2.0589    11.1219    12.2714 H6            1 RES     
     179 H6          -3.8342    10.9388    12.0932 H6            1 RES     
     180 H6          -3.9270    13.3472    11.2680 H6            1 RES     
     181 H6          -2.9653    12.1843    10.2819 H6            1 RES     
     182 H6          -1.7550    14.2344    12.2356 H6            1 RES     
     183 H6          -0.8356    12.9534    11.3543 H6            1 RES     
     184 H6          -2.4940    15.1620     9.9954 H6            1 RES     
     185 H6          -1.5581    13.8522     9.1681 H6            1 RES     
     186 H6          -0.6915    15.0948    10.1393 H6            1 RES     
     187 C0          -0.5009     5.8980    14.4191 C0            1 RES     
     188 C0           0.5718     5.9248    15.5768 C0            1 RES     
     189 C0           1.2043     4.5840    15.9312 C0            1 RES     
     190 C0           2.0563     4.6914    17.2357 C0            1 RES     
     191 C0           2.7913     3.3634    17.5441 C0            1 RES     
     192 C0           3.3118     3.2273    18.9984 C0            1 RES     
     193 C0           3.7064     1.7505    19.2567 C0            1 RES     
     194 C0           4.1879     1.4681    20.6790 C0            1 RES     
     195 C0           4.5013    -0.0239    20.8297 C0            1 RES     
     196 C0           3.9479     3.1382    16.5247 C0            1 RES     
     197 C0           3.6050     1.9952    15.5808 C0            1 RES     
     198 C0           4.6803     1.8149    14.5076 C0            1 RES     
     199 C0           4.2829     0.7503    13.4763 C0            1 RES     
     200 C0           3.0447     1.1670    12.6591 C0            1 RES     
     201 C0           2.6994     0.1311    11.6024 C0            1 RES     
     202 H6          -1.3693     5.3227    14.8046 H6            1 RES     
     203 H6          -0.1081     5.3734    13.5235 H6            1 RES     
     204 H6           1.4117     6.5856    15.3401 H6            1 RES     
     205 H6           0.1139     6.3000    16.5081 H6            1 RES     
     206 H6           0.4081     3.8281    16.0994 H6            1 RES     
     207 H6           1.8223     4.2819    15.0630 H6            1 RES     
     208 H6           1.3559     4.9253    18.0674 H6            1 RES     
     209 H6           2.7957     5.5228    17.1797 H6            1 RES     
     210 H6           2.0105     2.5735    17.4602 H6            1 RES     
     211 H6           2.4935     3.4853    19.7060 H6            1 RES     
     212 H6           4.1646     3.9177    19.1828 H6            1 RES     
     213 H6           2.8146     1.1134    19.0632 H6            1 RES     
     214 H6           4.5107     1.4335    18.5625 H6            1 RES     
     215 H6           5.1052     2.0582    20.8904 H6            1 RES     
     216 H6           3.3988     1.7470    21.4094 H6            1 RES     
     217 H6           5.2925    -0.3296    20.1104 H6            1 RES     
     218 H6           3.5905    -0.6310    20.6325 H6            1 RES     
     219 H6           4.8543    -0.2407    21.8585 H6            1 RES     
     220 H6           4.1394     4.0672    15.9420 H6            1 RES     
     221 H6           4.9171     2.9210    17.0224 H6            1 RES     
     222 H6           2.6381     2.2403    15.1171 H6            1 RES     
     223 H6           3.4878     1.0513    16.1578 H6            1 RES     
     224 H6           4.8579     2.7773    13.9786 H6            1 RES     
     225 H6           5.6294     1.5116    15.0031 H6            1 RES     
     226 H6           4.0984    -0.2179    13.9919 H6            1 RES     
     227 H6           5.1387     0.6196    12.7797 H6            1 RES     
     228 H6           2.1515     1.2720    13.3060 H6            1 RES     
     229 H6           3.2419     2.1421    12.1618 H6            1 RES     
     230 H6           2.4651    -0.8410    12.0863 H6            1 RES     
     231 H6           3.5464     0.0042    10.8972 H6            1 RES     
     232 H6           1.8064     0.4737    11.0378 H6            1 RES     
     233 H7          13.9611    10.2188    10.1732 H7            1 RES     
     234 H3          -9.3714     8.3133    10.1397 H3            1 RES     
@<TRIPOS>BOND
       1        1        2 1
       2        1        8 1
       3        1       49 1
       4        1       95 1
       5        2        3 1
       6        2        6 1
       7        3        4 1
       8        3        7 1
       9        4        5 1
      10        5        6 1
      11        5       30 1
      12        6       12 1
      13        7        8 1
      14        7       11 1
      15        8        9 1
      16        9       10 1
      17        9       13 1
      18       10       11 1
      19       10      233 1
      20       14       15 1
      21       14       21 1
      22       14      141 1
      23       14      187 1
      24       15       16 1
      25       15       19 1
      26       16       17 1
      27       16       20 1
      28       17       18 1
      29       18       19 1
      30       18       47 1
      31       19       25 1
      32       20       21 1
      33       20       24 1
      34       21       22 1
      35       22       23 1
      36       22       26 1
      37       23       24 1
      38       23       36 1
      39       27       28 1
      40       27       29 1
      41       27       36 1
      42       29       30 1
      43       29       37 1
      44       30       31 1
      45       31       32 1
      46       31       35 1
      47       32       33 1
      48       33       34 1
      49       34       35 1
      50       35       36 1
      51       38       39 1
      52       38       40 1
      53       38       47 1
      54       40       41 1
      55       40       48 1
      56       41       42 1
      57       41      234 1
      58       42       43 1
      59       42       46 1
      60       43       44 1
      61       44       45 1
      62       45       46 1
      63       46       47 1
      64       49       50 1
      65       49       64 1
      66       49       65 1
      67       50       51 1
      68       50       66 1
      69       50       67 1
      70       51       52 1
      71       51       68 1
      72       51       69 1
      73       52       53 1
      74       52       70 1
      75       52       71 1
      76       53       54 1
      77       53       58 1
      78       53       72 1
      79       54       55 1
      80       54       73 1
      81       54       74 1
      82       55       56 1
      83       55       75 1
      84       55       76 1
      85       56       57 1
      86       56       77 1
      87       56       78 1
      88       57       79 1
      89       57       80 1
      90       57       81 1
      91       58       59 1
      92       58       82 1
      93       58       83 1
      94       59       60 1
      95       59       84 1
      96       59       85 1
      97       60       61 1
      98       60       86 1
      99       60       87 1
     100       61       62 1
     101       61       88 1
     102       61       89 1
     103       62       63 1
     104       62       90 1
     105       62       91 1
     106       63       92 1
     107       63       93 1
     108       63       94 1
     109       95       96 1
     110       95      110 1
     111       95      111 1
     112       96       97 1
     113       96      112 1
     114       96      113 1
     115       97       98 1
     116       97      114 1
     117       97      115 1
     118       98       99 1
     119       98      116 1
     120       98      117 1
     121       99      100 1
     122       99      104 1
     123       99      118 1
     124      100      101 1
     125      100      119 1
     126      100      120 1
     127      101      102 1
     128      101      121 1
     129      101      122 1
     130      102      103 1
     131      102      123 1
     132      102      124 1
     133      103      125 1
     134      103      126 1
     135      103      127 1
     136      104      105 1
     137      104      128 1
     138      104      129 1
     139      105      106 1
     140      105      130 1
     141      105      131 1
     142      106      107 1
     143      106      132 1
     144      106      133 1
     145      107      108 1
     146      107      134 1
     147      107      135 1
     148      108      109 1
     149      108      136 1
     150      108      137 1
     151      109      138 1
     152      109      139 1
     153      109      140 1
     154      141      142 1
     155      141      156 1
     156      141      157 1
     157      142      143 1
     158      142      158 1
     159      142      159 1
     160      143      144 1
     161      143      160 1
     162      143      161 1
     163      144      145 1
     164      144      162 1
     165      144      163 1
     166      145      146 1
     167      145      150 1
     168      145      164 1
     169      146      147 1
     170      146      165 1
     171      146      166 1
     172      147      148 1
     173      147      167 1
     174      147      168 1
     175      148      149 1
     176      148      169 1
     177      148      170 1
     178      149      171 1
     179      149      172 1
     180      149      173 1
     181      150      151 1
     182      150      174 1
     183      150      175 1
     184      151      152 1
     185      151      176 1
     186      151      177 1
     187      152      153 1
     188      152      178 1
     189      152      179 1
     190      153      154 1
     191      153      180 1
     192      153      181 1
     193      154      155 1
     194      154      182 1
     195      154      183 1
     196      155      184 1
     197      155      185 1
     198      155      186 1
     199      187      188 1
     200      187      202 1
     201      187      203 1
     202      188      189 1
     203      188      204 1
     204      188      205 1
     205      189      190 1
     206      189      206 1
     207      189      207 1
     208      190      191 1
     209      190      208 1
     210      190      209 1
     211      191      192 1
     212      191      196 1
     213      191      210 1
     214      192      193 1
     215      192      211 1
     216      192      212 1
     217      193      194 1
     218      193      213 1
     219      193      214 1
     220      194      195 1
     221      194      215 1
     222      194      216 1
     223      195      217 1
     224      195      218 1
     225      195      219 1
     226      196      197 1
     227      196      220 1
     228      196      221 1
     229      197      198 1
     230      197      222 1
     231      197      223 1
     232      198      199 1
     233      198      224 1
     234      198      225 1
     235      199      200 1
     236      199      226 1
     237      199      227 1
     238      200      201 1
     239      200      228 1
     240      200      229 1
     241      201      230 1
     242      201      231 1
     243      201      232 1
@<TRIPOS>SUBSTRUCTURE
       1 RES             1 RESIDUE    0 **** ROOT      0
