@<TRIPOS>MOLECULE
RES
198 207 1 0 1
SMALL
NO_CHARGES
@<TRIPOS>CRYSIN
   29.6343    18.6907    14.6469    90.0000    90.0000    90.0000 1 1
@<TRIPOS>ATOM
       1 C0           9.6646     9.5608     8.7559 C0            1 RES     
       2 C1           8.5214     9.8101     9.7624 C1            1 RES     
       3 C1           8.9681    10.3775    10.9207 C1            1 RES     
       4 S2           7.7111    10.7517    12.0054 S2            1 RES     
       5 C1           6.5367    10.0537    10.9832 C1            1 RES     
       6 C1           7.1587     9.5973     9.8286 C1            1 RES     
       7 C1          10.3974    10.4618    10.8603 C1            1 RES     
       8 C1          10.7966    10.0013     9.6939 C1            1 RES     
       9 C1          12.2428     9.8815     9.6009 C1            1 RES     
      10 C1          12.8220    10.2255    10.8146 C1            1 RES     
      11 S2          11.6624    10.8663    12.0507 S2            1 RES     
      12 H3           6.5746     9.1653     9.0907 H3            1 RES     
      13 H3          12.7763     9.4386     8.7704 H3            1 RES     
      14 C0          -2.3899     8.8576     8.4198 C0            1 RES     
      15 C1          -3.5128     9.1133     9.4439 C1            1 RES     
      16 C1          -3.0922     9.7003    10.6020 C1            1 RES     
      17 S2          -4.3588    10.0341    11.6938 S2            1 RES     
      18 C1          -5.4918     9.2828    10.6604 C1            1 RES     
      19 C1          -4.8569     8.8682     9.5028 C1            1 RES     
      20 C1          -1.6766     9.8071    10.5326 C1            1 RES     
      21 C1          -1.2400     9.2815     9.3508 C1            1 RES     
      22 C1           0.1552     9.1964     9.2836 C1            1 RES     
      23 C1           0.7639     9.7125    10.4440 C1            1 RES     
      24 S2          -0.4262    10.2735    11.5357 S2            1 RES     
      25 H3          -5.4179     8.4152     8.7638 H3            1 RES     
      26 H3           0.6942     8.7821     8.4359 H3            1 RES     
      27 C1           3.0587     8.6847    10.4194 C1            1 RES     
      28 F4           2.5426     7.5146     9.9568 F4            1 RES     
      29 C1           4.4375     8.7881    10.5907 C1            1 RES     
      30 C1           5.0526     9.9703    11.0585 C1            1 RES     
      31 C1           4.2126    11.0411    11.4087 C1            1 RES     
      32 N5           4.6701    12.2554    11.8238 N5            1 RES     
      33 S2           3.2786    13.1355    11.9373 S2            1 RES     
      34 N5           2.0875    12.0737    11.4848 N5            1 RES     
      35 C1           2.8095    10.9461    11.2153 C1            1 RES     
      36 C1           2.2227     9.7736    10.7052 C1            1 RES     
      37 H3           5.0529     7.9283    10.3400 H3            1 RES     
      38 C1          -7.8876    10.1201    10.8800 C1            1 RES     
      39 F4          -7.4877    11.3656    11.2209 F4            1 RES     
      40 C1          -9.2542     9.9000    10.6099 C1            1 RES     
      41 C1          -9.7236     8.6386    10.2135 C1            1 RES     
      42 C1          -8.8241     7.5843    10.1157 C1            1 RES     
      43 N5          -9.1794     6.3230     9.7598 N5            1 RES     
      44 S2          -7.7296     5.5298     9.7822 S2            1 RES     
      45 N5          -6.6516     6.7043    10.2050 N5            1 RES     
      46 C1          -7.4448     7.7996    10.3559 C1            1 RES     
      47 C1          -6.9579     9.0752    10.7054 C1            1 RES     
      48 H3          -9.9547    10.7226    10.6773 H3            1 RES     
      49 C0           9.7304    10.3508     7.3687 C0            1 RES     
      50 C0           9.3772    11.8658     7.0176 C0            1 RES     
      51 C0           7.8957    12.2615     7.3014 C0            1 RES     
      52 C0           7.6981    12.8206     8.7086 C0            1 RES     
      53 C0           6.2244    12.9721     9.0891 C0            1 RES     
      54 C0           5.5073    14.1133     8.3802 C0            1 RES     
      55 C0           9.6810    12.0290     5.4799 C0            1 RES     
      56 C0           9.2323    13.3318     4.7623 C0            1 RES     
      57 C0           9.6797    14.6491     5.4145 C0            1 RES     
      58 C0          11.1951    14.8363     5.5255 C0            1 RES     
      59 C0          11.8890    14.8449     4.1467 C0            1 RES     
      60 C0          13.3835    15.1070     4.2920 C0            1 RES     
      61 H6           9.1311     9.7796     6.6527 H6            1 RES     
      62 H6          10.7723    10.1882     7.0100 H6            1 RES     
      63 H6          10.0432    12.5815     7.5483 H6            1 RES     
      64 H6           7.2259    11.4187     7.0569 H6            1 RES     
      65 H6           7.5591    13.1032     6.6800 H6            1 RES     
      66 H6           8.1464    12.1532     9.4224 H6            1 RES     
      67 H6           8.2391    13.7840     8.8310 H6            1 RES     
      68 H6           6.1978    13.1979    10.1696 H6            1 RES     
      69 H6           5.6903    12.0125     8.9041 H6            1 RES     
      70 H6           5.9996    15.0753     8.6367 H6            1 RES     
      71 H6           5.4998    13.9762     7.2809 H6            1 RES     
      72 H6           4.4562    14.1503     8.7393 H6            1 RES     
      73 H6          10.7769    11.9083     5.3367 H6            1 RES     
      74 H6           9.1852    11.2093     4.9137 H6            1 RES     
      75 H6           8.1264    13.3479     4.6761 H6            1 RES     
      76 H6           9.5828    13.2893     3.7092 H6            1 RES     
      77 H6           9.2586    15.4895     4.8214 H6            1 RES     
      78 H6           9.2472    14.7201     6.4341 H6            1 RES     
      79 H6          11.3857    15.8080     6.0164 H6            1 RES     
      80 H6          11.6327    14.0368     6.1550 H6            1 RES     
      81 H6          11.4508    15.6468     3.5082 H6            1 RES     
      82 H6          11.7570    13.8628     3.6424 H6            1 RES     
      83 H6          13.8621    15.1039     3.2916 H6            1 RES     
      84 H6          13.8467    14.3208     4.9165 H6            1 RES     
      85 H6          13.5485    16.0993     4.7646 H6            1 RES     
      86 C0           9.8517     8.0209     8.4800 C0            1 RES     
      87 C0           9.0633     7.1723     7.3857 C0            1 RES     
      88 C0           7.5004     7.1636     7.4702 C0            1 RES     
      89 C0           6.8347     8.3754     6.7753 C0            1 RES     
      90 C0           5.3028     8.4470     6.9613 C0            1 RES     
      91 C0           4.5273     7.4883     6.0811 C0            1 RES     
      92 C0           9.6432     5.7231     7.5071 C0            1 RES     
      93 C0           9.0548     4.6243     6.5939 C0            1 RES     
      94 C0           9.0557     4.9368     5.0863 C0            1 RES     
      95 C0          10.4391     5.1802     4.4623 C0            1 RES     
      96 C0          11.3768     3.9709     4.5901 C0            1 RES     
      97 C0          12.6941     4.2234     3.8632 C0            1 RES     
      98 H6           9.7532     7.5080     9.4628 H6            1 RES     
      99 H6          10.9159     7.9081     8.1717 H6            1 RES     
     100 H6           9.3318     7.5241     6.3664 H6            1 RES     
     101 H6           7.1977     7.0325     8.5303 H6            1 RES     
     102 H6           7.0839     6.3154     6.9049 H6            1 RES     
     103 H6           7.2352     9.2816     7.2080 H6            1 RES     
     104 H6           7.0956     8.4243     5.6969 H6            1 RES     
     105 H6           4.9676     9.4776     6.7117 H6            1 RES     
     106 H6           5.0191     8.2472     8.0104 H6            1 RES     
     107 H6           4.7158     7.7341     5.0158 H6            1 RES     
     108 H6           4.8092     6.4381     6.2908 H6            1 RES     
     109 H6           3.4432     7.6189     6.2911 H6            1 RES     
     110 H6          10.7372     5.7713     7.3097 H6            1 RES     
     111 H6           9.5135     5.3628     8.5513 H6            1 RES     
     112 H6           8.0126     4.4050     6.9012 H6            1 RES     
     113 H6           9.6122     3.6826     6.7813 H6            1 RES     
     114 H6           8.5796     4.0798     4.5610 H6            1 RES     
     115 H6           8.4225     5.8293     4.8980 H6            1 RES     
     116 H6          10.2787     5.3912     3.3816 H6            1 RES     
     117 H6          10.9114     6.0756     4.9188 H6            1 RES     
     118 H6          10.8938     3.0718     4.1489 H6            1 RES     
     119 H6          11.5997     3.7720     5.6592 H6            1 RES     
     120 H6          13.3573     3.3401     3.9767 H6            1 RES     
     121 H6          13.2060     5.1122     4.2892 H6            1 RES     
     122 H6          12.5095     4.3916     2.7806 H6            1 RES     
     123 C0          -2.3671     9.6689     7.0424 C0            1 RES     
     124 C0          -2.7660    11.1824     6.6972 C0            1 RES     
     125 C0          -4.2551    11.5625     6.9862 C0            1 RES     
     126 C0          -4.4734    12.0937     8.4006 C0            1 RES     
     127 C0          -5.9505    12.2117     8.7813 C0            1 RES     
     128 C0          -6.6994    13.3489     8.0990 C0            1 RES     
     129 C0          -2.4789    11.3496     5.1561 C0            1 RES     
     130 C0          -2.9594    12.6384     4.4350 C0            1 RES     
     131 C0          -2.5237    13.9701     5.0704 C0            1 RES     
     132 C0          -1.0074    14.1730     5.1621 C0            1 RES     
     133 C0          -0.3242    14.1756     3.7878 C0            1 RES     
     134 C0           1.1684    14.4422     3.9281 C0            1 RES     
     135 H6          -2.9620     9.0892     6.3310 H6            1 RES     
     136 H6          -1.3292     9.5305     6.6662 H6            1 RES     
     137 H6          -2.1106    11.9101     7.2241 H6            1 RES     
     138 H6          -4.9222    10.7286     6.7165 H6            1 RES     
     139 H6          -4.5953    12.4159     6.3821 H6            1 RES     
     140 H6          -4.0231    11.4205     9.1029 H6            1 RES     
     141 H6          -3.9482    13.0621     8.5454 H6            1 RES     
     142 H6          -5.9740    12.4234     9.8653 H6            1 RES     
     143 H6          -6.4651    11.2451     8.5819 H6            1 RES     
     144 H6          -6.2313    14.3179     8.3721 H6            1 RES     
     145 H6          -6.7125    13.2311     6.9978 H6            1 RES     
     146 H6          -7.7489    13.3528     8.4674 H6            1 RES     
     147 H6          -1.3854    11.2461     5.0005 H6            1 RES     
     148 H6          -2.9708    10.5212     4.5984 H6            1 RES     
     149 H6          -4.0656    12.6418     4.3626 H6            1 RES     
     150 H6          -2.6200    12.5953     3.3794 H6            1 RES     
     151 H6          -2.9583    14.7998     4.4691 H6            1 RES     
     152 H6          -2.9498    14.0483     6.0926 H6            1 RES     
     153 H6          -0.8317    15.1571     5.6497 H6            1 RES     
     154 H6          -0.5626    13.3853     5.8071 H6            1 RES     
     155 H6          -0.7747    14.9651     3.1464 H6            1 RES     
     156 H6          -0.4539    13.1919     3.2906 H6            1 RES     
     157 H6           1.6427    14.4335     2.9246 H6            1 RES     
     158 H6           1.6393    13.6546     4.5544 H6            1 RES     
     159 H6           1.3388    15.4347     4.3969 H6            1 RES     
     160 C0          -2.2460     7.3143     8.1171 C0            1 RES     
     161 C0          -3.0756     6.4929     7.0201 C0            1 RES     
     162 C0          -4.6410     6.5113     7.1043 C0            1 RES     
     163 C0          -5.2920     7.7376     6.4157 C0            1 RES     
     164 C0          -6.8203     7.8523     6.6102 C0            1 RES     
     165 C0          -7.6268     6.8838     5.7660 C0            1 RES     
     166 C0          -2.5365     5.0278     7.1257 C0            1 RES     
     167 C0          -3.1526     3.9503     6.2033 C0            1 RES     
     168 C0          -3.1476     4.2757     4.6986 C0            1 RES     
     169 C0          -1.7621     4.5178     4.0798 C0            1 RES     
     170 C0          -0.8243     3.3097     4.2128 C0            1 RES     
     171 C0           0.4937     3.5622     3.4875 C0            1 RES     
     172 H6          -2.3405     6.7896     9.0943 H6            1 RES     
     173 H6          -1.1898     7.1846     7.7901 H6            1 RES     
     174 H6          -2.8065     6.8458     6.0012 H6            1 RES     
     175 H6          -4.9408     6.3626     8.1598 H6            1 RES     
     176 H6          -5.0753     5.6757     6.5344 H6            1 RES     
     177 H6          -4.8742     8.6336     6.8488 H6            1 RES     
     178 H6          -5.0379     7.7787     5.3354 H6            1 RES     
     179 H6          -7.1333     8.8816     6.3278 H6            1 RES     
     180 H6          -7.0984     7.7049     7.6690 H6            1 RES     
     181 H6          -7.4415     7.0895     4.6914 H6            1 RES     
     182 H6          -7.3699     5.8340     6.0067 H6            1 RES     
     183 H6          -8.7065     7.0460     5.9771 H6            1 RES     
     184 H6          -1.4424     5.0489     6.9279 H6            1 RES     
     185 H6          -2.6771     4.6620     8.1666 H6            1 RES     
     186 H6          -4.1986     3.7462     6.5091 H6            1 RES     
     187 H6          -2.6132     2.9962     6.3801 H6            1 RES     
     188 H6          -3.6281     3.4256     4.1656 H6            1 RES     
     189 H6          -3.7751     5.1737     4.5161 H6            1 RES     
     190 H6          -1.9183     4.7303     2.9990 H6            1 RES     
     191 H6          -1.2911     5.4127     4.5392 H6            1 RES     
     192 H6          -1.3054     2.4086     3.7739 H6            1 RES     
     193 H6          -0.6036     3.1148     5.2834 H6            1 RES     
     194 H6           1.1590     2.6813     3.6062 H6            1 RES     
     195 H6           1.0026     4.4548     3.9097 H6            1 RES     
     196 H6           0.3099     3.7247     2.4038 H6            1 RES     
     197 H7          13.8654    10.0345    11.0339 H7            1 RES     
     198 H3         -10.7689     8.4836     9.9831 H3            1 RES     
@<TRIPOS>BOND
       1        1        2 1
       2        1        8 1
       3        1       49 1
       4        1       86 1
       5        2        3 1
       6        2        6 1
       7        3        4 1
       8        3        7 1
       9        4        5 1
      10        5        6 1
      11        5       30 1
      12        6       12 1
      13        7        8 1
      14        7       11 1
      15        8        9 1
      16        9       10 1
      17        9       13 1
      18       10       11 1
      19       10      197 1
      20       14       15 1
      21       14       21 1
      22       14      123 1
      23       14      160 1
      24       15       16 1
      25       15       19 1
      26       16       17 1
      27       16       20 1
      28       17       18 1
      29       18       19 1
      30       18       47 1
      31       19       25 1
      32       20       21 1
      33       20       24 1
      34       21       22 1
      35       22       23 1
      36       22       26 1
      37       23       24 1
      38       23       36 1
      39       27       28 1
      40       27       29 1
      41       27       36 1
      42       29       30 1
      43       29       37 1
      44       30       31 1
      45       31       32 1
      46       31       35 1
      47       32       33 1
      48       33       34 1
      49       34       35 1
      50       35       36 1
      51       38       39 1
      52       38       40 1
      53       38       47 1
      54       40       41 1
      55       40       48 1
      56       41       42 1
      57       41      198 1
      58       42       43 1
      59       42       46 1
      60       43       44 1
      61       44       45 1
      62       45       46 1
      63       46       47 1
      64       49       50 1
      65       49       61 1
      66       49       62 1
      67       50       51 1
      68       50       55 1
      69       50       63 1
      70       51       52 1
      71       51       64 1
      72       51       65 1
      73       52       53 1
      74       52       66 1
      75       52       67 1
      76       53       54 1
      77       53       68 1
      78       53       69 1
      79       54       70 1
      80       54       71 1
      81       54       72 1
      82       55       56 1
      83       55       73 1
      84       55       74 1
      85       56       57 1
      86       56       75 1
      87       56       76 1
      88       57       58 1
      89       57       77 1
      90       57       78 1
      91       58       59 1
      92       58       79 1
      93       58       80 1
      94       59       60 1
      95       59       81 1
      96       59       82 1
      97       60       83 1
      98       60       84 1
      99       60       85 1
     100       86       87 1
     101       86       98 1
     102       86       99 1
     103       87       88 1
     104       87       92 1
     105       87      100 1
     106       88       89 1
     107       88      101 1
     108       88      102 1
     109       89       90 1
     110       89      103 1
     111       89      104 1
     112       90       91 1
     113       90      105 1
     114       90      106 1
     115       91      107 1
     116       91      108 1
     117       91      109 1
     118       92       93 1
     119       92      110 1
     120       92      111 1
     121       93       94 1
     122       93      112 1
     123       93      113 1
     124       94       95 1
     125       94      114 1
     126       94      115 1
     127       95       96 1
     128       95      116 1
     129       95      117 1
     130       96       97 1
     131       96      118 1
     132       96      119 1
     133       97      120 1
     134       97      121 1
     135       97      122 1
     136      123      124 1
     137      123      135 1
     138      123      136 1
     139      124      125 1
     140      124      129 1
     141      124      137 1
     142      125      126 1
     143      125      138 1
     144      125      139 1
     145      126      127 1
     146      126      140 1
     147      126      141 1
     148      127      128 1
     149      127      142 1
     150      127      143 1
     151      128      144 1
     152      128      145 1
     153      128      146 1
     154      129      130 1
     155      129      147 1
     156      129      148 1
     157      130      131 1
     158      130      149 1
     159      130      150 1
     160      131      132 1
     161      131      151 1
     162      131      152 1
     163      132      133 1
     164      132      153 1
     165      132      154 1
     166      133      134 1
     167      133      155 1
     168      133      156 1
     169      134      157 1
     170      134      158 1
     171      134      159 1
     172      160      161 1
     173      160      172 1
     174      160      173 1
     175      161      162 1
     176      161      166 1
     177      161      174 1
     178      162      163 1
     179      162      175 1
     180      162      176 1
     181      163      164 1
     182      163      177 1
     183      163      178 1
     184      164      165 1
     185      164      179 1
     186      164      180 1
     187      165      181 1
     188      165      182 1
     189      165      183 1
     190      166      167 1
     191      166      184 1
     192      166      185 1
     193      167      168 1
     194      167      186 1
     195      167      187 1
     196      168      169 1
     197      168      188 1
     198      168      189 1
     199      169      170 1
     200      169      190 1
     201      169      191 1
     202      170      171 1
     203      170      192 1
     204      170      193 1
     205      171      194 1
     206      171      195 1
     207      171      196 1
@<TRIPOS>SUBSTRUCTURE
       1 RES             1 RESIDUE    0 **** ROOT      0
