@<TRIPOS>MOLECULE
RES
222 231 1 0 1
SMALL
NO_CHARGES
@<TRIPOS>CRYSIN
   29.7932    15.2377    29.1909    90.0000    90.0000    90.0000 1 1
@<TRIPOS>ATOM
       1 C0           9.1806    10.0835     9.9193 C0            1 RES     
       2 C1           7.8558     9.9190    10.6412 C1            1 RES     
       3 C1           7.9347    10.0251    11.9980 C1            1 RES     
       4 S2           6.4737     9.7292    12.7593 S2            1 RES     
       5 C1           5.7246     9.4681    11.2687 C1            1 RES     
       6 C1           6.5746     9.5676    10.2436 C1            1 RES     
       7 C1           9.2865    10.1534    12.5001 C1            1 RES     
       8 C1          10.0316    10.2220    11.2231 C1            1 RES     
       9 C1          11.2805    10.6306    11.4276 C1            1 RES     
      10 C1          11.4139    11.2023    12.6860 C1            1 RES     
      11 S2           9.8207    11.5839    13.4482 S2            1 RES     
      12 H3           6.1252     9.2999     9.3249 H3            1 RES     
      13 H3          12.0652    10.7330    10.7086 H3            1 RES     
      14 C0          -1.3022     8.7800    15.0990 C0            1 RES     
      15 C1          -2.7299     9.2385    14.6036 C1            1 RES     
      16 C1          -2.6100    10.4066    13.8368 C1            1 RES     
      17 S2          -3.9766    10.8170    13.0317 S2            1 RES     
      18 C1          -4.8315     9.4465    13.4842 C1            1 RES     
      19 C1          -4.0252     8.6651    14.3898 C1            1 RES     
      20 C1          -1.3709    10.2704    13.1635 C1            1 RES     
      21 C1          -0.8402     9.1745    13.6845 C1            1 RES     
      22 C1          -0.0395     8.5137    12.7772 C1            1 RES     
      23 C1           0.2331     9.1767    11.6107 C1            1 RES     
      24 S2          -0.7793    10.5610    11.5830 S2            1 RES     
      25 H3          -4.2850     7.6724    14.7379 H3            1 RES     
      26 H3           0.4001     7.6215    13.0490 H3            1 RES     
      27 C1           2.4182     7.8925    11.5210 C1            1 RES     
      28 F4           2.0036     6.7476    12.1155 F4            1 RES     
      29 C1           3.7780     8.0751    11.5788 C1            1 RES     
      30 C1           4.3409     9.1949    11.0238 C1            1 RES     
      31 C1           3.5732    10.0605    10.2327 C1            1 RES     
      32 N5           4.0805    11.1209     9.5515 N5            1 RES     
      33 S2           2.7236    11.8288     8.9319 S2            1 RES     
      34 N5           1.4870    10.9126     9.5532 N5            1 RES     
      35 C1           2.1614     9.9445    10.2323 C1            1 RES     
      36 C1           1.5713     8.9320    10.9999 C1            1 RES     
      37 H3           4.3913     7.3491    12.1003 H3            1 RES     
      38 C1          -6.7756    10.1319    11.9615 C1            1 RES     
      39 F4          -6.4533    11.4486    12.0768 F4            1 RES     
      40 C1          -7.8135     9.8277    11.0779 C1            1 RES     
      41 C1          -8.2048     8.5087    10.8633 C1            1 RES     
      42 C1          -7.5504     7.4951    11.5529 C1            1 RES     
      43 N5          -7.8473     6.1854    11.3777 N5            1 RES     
      44 S2          -6.7587     5.4451    12.3714 S2            1 RES     
      45 N5          -5.9047     6.6984    13.0295 N5            1 RES     
      46 C1          -6.4917     7.7848    12.4677 C1            1 RES     
      47 C1          -6.0669     9.1125    12.6857 C1            1 RES     
      48 H3          -8.3115    10.6262    10.5341 H3            1 RES     
      49 C0           9.3434    11.4445     9.2814 C0            1 RES     
      50 C0          10.7440    11.8836     8.7358 C0            1 RES     
      51 C0          11.6358    11.1993     7.6436 C0            1 RES     
      52 C0          12.4044     9.8174     7.4848 C0            1 RES     
      53 C0          13.2694     9.9258     6.1778 C0            1 RES     
      54 C0          14.3563    11.0294     6.1227 C0            1 RES     
      55 C0          15.0025    11.1740     4.7327 C0            1 RES     
      56 C0          14.0186    11.6515     3.6535 C0            1 RES     
      57 C0          13.2018     9.1890     8.7012 C0            1 RES     
      58 C0          12.3574     8.1404     9.5112 C0            1 RES     
      59 C0          13.0972     7.1572    10.4603 C0            1 RES     
      60 C0          13.6291     7.6055    11.8453 C0            1 RES     
      61 C0          12.6059     7.9365    12.9583 C0            1 RES     
      62 C0          11.4873     6.9204    13.1837 C0            1 RES     
      63 H6           9.0573    12.2207    10.0247 H6            1 RES     
      64 H6           8.5836    11.4910     8.5524 H6            1 RES     
      65 H6          10.5460    12.8870     8.3074 H6            1 RES     
      66 H6          11.3849    12.1954     9.5622 H6            1 RES     
      67 H6          12.4390    11.9452     7.6532 H6            1 RES     
      68 H6          11.1150    11.3160     6.6793 H6            1 RES     
      69 H6          11.7169     9.0284     7.1419 H6            1 RES     
      70 H6          13.7467     8.9449     5.9576 H6            1 RES     
      71 H6          12.5496    10.1114     5.3544 H6            1 RES     
      72 H6          13.9584    12.0374     6.3333 H6            1 RES     
      73 H6          15.1335    10.8008     6.8807 H6            1 RES     
      74 H6          15.7985    11.9461     4.8146 H6            1 RES     
      75 H6          15.4739    10.2175     4.4197 H6            1 RES     
      76 H6          13.5324    12.6040     3.9608 H6            1 RES     
      77 H6          13.2326    10.8984     3.4448 H6            1 RES     
      78 H6          14.5628    11.8312     2.7033 H6            1 RES     
      79 H6          13.7141     9.9566     9.3145 H6            1 RES     
      80 H6          14.0038     8.5598     8.2575 H6            1 RES     
      81 H6          11.9294     7.4600     8.7408 H6            1 RES     
      82 H6          11.5081     8.5670    10.0372 H6            1 RES     
      83 H6          13.9519     6.7384     9.8890 H6            1 RES     
      84 H6          12.4100     6.3061    10.6596 H6            1 RES     
      85 H6          14.3333     8.4562    11.7265 H6            1 RES     
      86 H6          14.2078     6.7425    12.2377 H6            1 RES     
      87 H6          13.1585     8.0796    13.9125 H6            1 RES     
      88 H6          12.1248     8.8675    12.7501 H6            1 RES     
      89 H6          10.8446     7.2715    14.0233 H6            1 RES     
      90 H6          11.8990     5.9262    13.4427 H6            1 RES     
      91 H6          10.8389     6.8498    12.2854 H6            1 RES     
      92 C0           9.1622     9.0239     8.7408 C0            1 RES     
      93 C0           8.0846     9.2381     7.5514 C0            1 RES     
      94 C0           8.1436    10.0275     6.2105 C0            1 RES     
      95 C0           8.1833    11.6034     6.1356 C0            1 RES     
      96 C0           8.3262    12.0141     4.6412 C0            1 RES     
      97 C0           7.0431    11.7959     3.7966 C0            1 RES     
      98 C0           7.2865    11.9480     2.2911 C0            1 RES     
      99 C0           8.0977    10.7833     1.7144 C0            1 RES     
     100 C0           7.0865    12.4854     6.8748 C0            1 RES     
     101 C0           7.7392    13.8201     7.3686 C0            1 RES     
     102 C0           6.8789    14.9211     8.0159 C0            1 RES     
     103 C0           5.8927    14.5326     9.1364 C0            1 RES     
     104 C0           6.4238    13.7377    10.3439 C0            1 RES     
     105 C0           7.5216    14.4329    11.1468 C0            1 RES     
     106 H6           8.9179     8.0549     9.2334 H6            1 RES     
     107 H6          10.1076     8.8553     8.2797 H6            1 RES     
     108 H6           7.8304     8.2019     7.2328 H6            1 RES     
     109 H6           7.2073     9.7249     7.8799 H6            1 RES     
     110 H6           7.2115     9.7244     5.6840 H6            1 RES     
     111 H6           8.9916     9.5992     5.6382 H6            1 RES     
     112 H6           9.1419    11.8557     6.5816 H6            1 RES     
     113 H6           8.6245    13.0789     4.5557 H6            1 RES     
     114 H6           9.1619    11.4142     4.2312 H6            1 RES     
     115 H6           6.5935    10.7958     3.9496 H6            1 RES     
     116 H6           6.2878    12.5511     4.0938 H6            1 RES     
     117 H6           6.2984    11.9414     1.7813 H6            1 RES     
     118 H6           7.7835    12.9182     2.0793 H6            1 RES     
     119 H6           7.5715     9.8223     1.9064 H6            1 RES     
     120 H6           9.1141    10.7276     2.1502 H6            1 RES     
     121 H6           8.2016    10.9117     0.6178 H6            1 RES     
     122 H6           6.6831    11.9755     7.7724 H6            1 RES     
     123 H6           6.2006    12.6689     6.2418 H6            1 RES     
     124 H6           8.2861    14.2989     6.5304 H6            1 RES     
     125 H6           8.4932    13.5833     8.1265 H6            1 RES     
     126 H6           6.2894    15.4179     7.2184 H6            1 RES     
     127 H6           7.5883    15.6828     8.4172 H6            1 RES     
     128 H6           5.0795    13.9349     8.6786 H6            1 RES     
     129 H6           5.4423    15.4789     9.5139 H6            1 RES     
     130 H6           5.5635    13.5726    11.0296 H6            1 RES     
     131 H6           6.7791    12.7438    10.0144 H6            1 RES     
     132 H6           7.7766    13.7989    12.0256 H6            1 RES     
     133 H6           7.1759    15.4198    11.5197 H6            1 RES     
     134 H6           8.4373    14.5644    10.5361 H6            1 RES     
     135 C0          -0.9364     9.6162    16.4615 C0            1 RES     
     136 C0           0.1235     9.1590    17.7247 C0            1 RES     
     137 C0           1.7223     9.0341    18.2763 C0            1 RES     
     138 C0           3.1745     8.3060    18.0598 C0            1 RES     
     139 C0           4.2800     8.9734    17.0915 C0            1 RES     
     140 C0           5.0687    10.2283    17.6451 C0            1 RES     
     141 C0           6.1823    10.7856    16.7330 C0            1 RES     
     142 C0           5.6652    11.5620    15.5324 C0            1 RES     
     143 C0           3.9825     8.1887    19.3946 C0            1 RES     
     144 C0           3.5115     7.2670    20.5120 C0            1 RES     
     145 C0           4.6362     7.1209    21.5755 C0            1 RES     
     146 C0           5.1526     8.4409    22.2017 C0            1 RES     
     147 C0           4.0797     9.2771    22.9123 C0            1 RES     
     148 C0           3.4391     8.5293    24.0773 C0            1 RES     
     149 H6          -0.9115    10.6559    16.1592 H6            1 RES     
     150 H6          -1.9022     9.5468    17.0086 H6            1 RES     
     151 H6          -0.2684     8.1671    18.0218 H6            1 RES     
     152 H6          -0.2717     9.8330    18.5142 H6            1 RES     
     153 H6           1.4815     8.6779    19.2978 H6            1 RES     
     154 H6           2.1300    10.0040    18.3969 H6            1 RES     
     155 H6           3.0162     7.2576    17.7416 H6            1 RES     
     156 H6           5.0723     8.2085    16.9299 H6            1 RES     
     157 H6           3.9256     9.1405    16.0956 H6            1 RES     
     158 H6           4.4059    11.0568    17.9431 H6            1 RES     
     159 H6           5.6265     9.9343    18.5550 H6            1 RES     
     160 H6           6.7905    11.5077    17.3257 H6            1 RES     
     161 H6           6.8560     9.9656    16.4062 H6            1 RES     
     162 H6           5.0739    12.4345    15.8763 H6            1 RES     
     163 H6           5.0459    10.9092    14.8914 H6            1 RES     
     164 H6           6.5226    11.9459    14.9390 H6            1 RES     
     165 H6           4.0766     9.2053    19.8310 H6            1 RES     
     166 H6           4.9908     7.7892    19.1366 H6            1 RES     
     167 H6           3.3206     6.2577    20.0896 H6            1 RES     
     168 H6           2.5786     7.6463    20.9712 H6            1 RES     
     169 H6           5.5159     6.6334    21.0967 H6            1 RES     
     170 H6           4.2908     6.4323    22.3713 H6            1 RES     
     171 H6           5.6271     9.0726    21.4194 H6            1 RES     
     172 H6           5.9585     8.1958    22.9279 H6            1 RES     
     173 H6           4.5632    10.1968    23.3093 H6            1 RES     
     174 H6           3.2956     9.5919    22.1917 H6            1 RES     
     175 H6           2.7080     9.1916    24.5839 H6            1 RES     
     176 H6           4.2177     8.2242    24.8087 H6            1 RES     
     177 H6           2.8981     7.6306    23.7175 H6            1 RES     
     178 C0          -0.4167     7.5710    15.3999 C0            1 RES     
     179 C0           1.1436     8.1036    15.4396 C0            1 RES     
     180 C0           1.6114     9.7034    15.2078 C0            1 RES     
     181 C0           1.9057    11.1639    15.9641 C0            1 RES     
     182 C0           2.3544    12.1308    14.8124 C0            1 RES     
     183 C0           1.1637    12.7238    14.0242 C0            1 RES     
     184 C0           1.5866    13.7634    12.9883 C0            1 RES     
     185 C0           2.5152    13.1730    11.9462 C0            1 RES     
     186 C0           1.0738    12.1421    16.9934 C0            1 RES     
     187 C0           1.5564    12.3110    18.4732 C0            1 RES     
     188 C0           1.1837    13.6360    19.1679 C0            1 RES     
     189 C0          -0.2726    13.7355    19.6546 C0            1 RES     
     190 C0          -0.6868    12.6744    20.7032 C0            1 RES     
     191 C0           0.2153    12.6427    21.9436 C0            1 RES     
     192 H6          -0.7381     7.0609    16.3200 H6            1 RES     
     193 H6          -0.5543     6.7359    14.6681 H6            1 RES     
     194 H6           1.6523     7.5584    16.2232 H6            1 RES     
     195 H6           1.6571     7.5484    14.6331 H6            1 RES     
     196 H6           1.1216    10.0456    14.3337 H6            1 RES     
     197 H6           2.5704     9.5236    14.6904 H6            1 RES     
     198 H6           2.8347    11.0010    16.4965 H6            1 RES     
     199 H6           2.9290    12.9798    15.2411 H6            1 RES     
     200 H6           3.0450    11.6075    14.1236 H6            1 RES     
     201 H6           0.6148    11.9279    13.5097 H6            1 RES     
     202 H6           0.4418    13.2273    14.6965 H6            1 RES     
     203 H6           0.6640    14.1157    12.4766 H6            1 RES     
     204 H6           2.0756    14.6313    13.4778 H6            1 RES     
     205 H6           2.0206    12.2796    11.5401 H6            1 RES     
     206 H6           3.4923    12.8788    12.3785 H6            1 RES     
     207 H6           2.6981    13.9096    11.1385 H6            1 RES     
     208 H6          -0.0099    12.2488    16.8857 H6            1 RES     
     209 H6           1.3540    13.1677    16.6882 H6            1 RES     
     210 H6           2.6634    12.3120    18.4450 H6            1 RES     
     211 H6           1.1972    11.5374    19.1626 H6            1 RES     
     212 H6           1.4262    14.4925    18.5037 H6            1 RES     
     213 H6           1.8385    13.7511    20.0576 H6            1 RES     
     214 H6          -0.9624    13.6781    18.7871 H6            1 RES     
     215 H6          -0.3922    14.7374    20.1219 H6            1 RES     
     216 H6          -1.7219    12.9075    21.0319 H6            1 RES     
     217 H6          -0.7079    11.6618    20.2519 H6            1 RES     
     218 H6          -0.1806    11.9050    22.6732 H6            1 RES     
     219 H6           0.2511    13.6405    22.4294 H6            1 RES     
     220 H6           1.2463    12.3231    21.6826 H6            1 RES     
     221 H7          12.3223    11.7132    12.9781 H7            1 RES     
     222 H3          -8.9947     8.2883    10.1577 H3            1 RES     
@<TRIPOS>BOND
       1        1        2 1
       2        1        8 1
       3        1       49 1
       4        1       92 1
       5        2        3 1
       6        2        6 1
       7        3        4 1
       8        3        7 1
       9        4        5 1
      10        5        6 1
      11        5       30 1
      12        6       12 1
      13        7        8 1
      14        7       11 1
      15        8        9 1
      16        9       10 1
      17        9       13 1
      18       10       11 1
      19       10      221 1
      20       14       15 1
      21       14       21 1
      22       14      135 1
      23       14      178 1
      24       15       16 1
      25       15       19 1
      26       16       17 1
      27       16       20 1
      28       17       18 1
      29       18       19 1
      30       18       47 1
      31       19       25 1
      32       20       21 1
      33       20       24 1
      34       21       22 1
      35       22       23 1
      36       22       26 1
      37       23       24 1
      38       23       36 1
      39       27       28 1
      40       27       29 1
      41       27       36 1
      42       29       30 1
      43       29       37 1
      44       30       31 1
      45       31       32 1
      46       31       35 1
      47       32       33 1
      48       33       34 1
      49       34       35 1
      50       35       36 1
      51       38       39 1
      52       38       40 1
      53       38       47 1
      54       40       41 1
      55       40       48 1
      56       41       42 1
      57       41      222 1
      58       42       43 1
      59       42       46 1
      60       43       44 1
      61       44       45 1
      62       45       46 1
      63       46       47 1
      64       49       50 1
      65       49       63 1
      66       49       64 1
      67       50       51 1
      68       50       65 1
      69       50       66 1
      70       51       52 1
      71       51       67 1
      72       51       68 1
      73       52       53 1
      74       52       57 1
      75       52       69 1
      76       53       54 1
      77       53       70 1
      78       53       71 1
      79       54       55 1
      80       54       72 1
      81       54       73 1
      82       55       56 1
      83       55       74 1
      84       55       75 1
      85       56       76 1
      86       56       77 1
      87       56       78 1
      88       57       58 1
      89       57       79 1
      90       57       80 1
      91       58       59 1
      92       58       81 1
      93       58       82 1
      94       59       60 1
      95       59       83 1
      96       59       84 1
      97       60       61 1
      98       60       85 1
      99       60       86 1
     100       61       62 1
     101       61       87 1
     102       61       88 1
     103       62       89 1
     104       62       90 1
     105       62       91 1
     106       92       93 1
     107       92      106 1
     108       92      107 1
     109       93       94 1
     110       93      108 1
     111       93      109 1
     112       94       95 1
     113       94      110 1
     114       94      111 1
     115       95       96 1
     116       95      100 1
     117       95      112 1
     118       96       97 1
     119       96      113 1
     120       96      114 1
     121       97       98 1
     122       97      115 1
     123       97      116 1
     124       98       99 1
     125       98      117 1
     126       98      118 1
     127       99      119 1
     128       99      120 1
     129       99      121 1
     130      100      101 1
     131      100      122 1
     132      100      123 1
     133      101      102 1
     134      101      124 1
     135      101      125 1
     136      102      103 1
     137      102      126 1
     138      102      127 1
     139      103      104 1
     140      103      128 1
     141      103      129 1
     142      104      105 1
     143      104      130 1
     144      104      131 1
     145      105      132 1
     146      105      133 1
     147      105      134 1
     148      135      136 1
     149      135      149 1
     150      135      150 1
     151      136      137 1
     152      136      151 1
     153      136      152 1
     154      137      138 1
     155      137      153 1
     156      137      154 1
     157      138      139 1
     158      138      143 1
     159      138      155 1
     160      139      140 1
     161      139      156 1
     162      139      157 1
     163      140      141 1
     164      140      158 1
     165      140      159 1
     166      141      142 1
     167      141      160 1
     168      141      161 1
     169      142      162 1
     170      142      163 1
     171      142      164 1
     172      143      144 1
     173      143      165 1
     174      143      166 1
     175      144      145 1
     176      144      167 1
     177      144      168 1
     178      145      146 1
     179      145      169 1
     180      145      170 1
     181      146      147 1
     182      146      171 1
     183      146      172 1
     184      147      148 1
     185      147      173 1
     186      147      174 1
     187      148      175 1
     188      148      176 1
     189      148      177 1
     190      178      179 1
     191      178      192 1
     192      178      193 1
     193      179      180 1
     194      179      194 1
     195      179      195 1
     196      180      181 1
     197      180      196 1
     198      180      197 1
     199      181      182 1
     200      181      186 1
     201      181      198 1
     202      182      183 1
     203      182      199 1
     204      182      200 1
     205      183      184 1
     206      183      201 1
     207      183      202 1
     208      184      185 1
     209      184      203 1
     210      184      204 1
     211      185      205 1
     212      185      206 1
     213      185      207 1
     214      186      187 1
     215      186      208 1
     216      186      209 1
     217      187      188 1
     218      187      210 1
     219      187      211 1
     220      188      189 1
     221      188      212 1
     222      188      213 1
     223      189      190 1
     224      189      214 1
     225      189      215 1
     226      190      191 1
     227      190      216 1
     228      190      217 1
     229      191      218 1
     230      191      219 1
     231      191      220 1
@<TRIPOS>SUBSTRUCTURE
       1 RES             1 RESIDUE    0 **** ROOT      0
