@<TRIPOS>MOLECULE
Compound
166 171 1 0 1
SMALL
NO_CHARGES
@<TRIPOS>CRYSIN
   27.7100    24.6730    12.8050    90.0000    90.0000    90.0000  1  1
@<TRIPOS>ATOM
       1 N0          -7.9020    -0.6540     0.3330 N0            1 Compound
       2 C1          -9.1650    -1.3530    -0.0320 C1            1 Compound
       3 C2         -10.2040    -0.6980     0.8740 C2            1 Compound
       4 C3         -11.6690    -0.7230     0.4330 C3            1 Compound
       5 O4         -12.4080    -1.3210     1.4520 O4            1 Compound
       6 N5         -12.1070     0.6740     0.2570 N5            1 Compound
       7 C6         -10.8360     1.3640    -0.0910 C6            1 Compound
       8 C2          -9.8240     0.7330     0.8620 C2            1 Compound
       9 C3          -8.3460     0.7460     0.4640 C3            1 Compound
      10 O7          -7.6360     1.3690     1.4880 O7            1 Compound
      11 C8          -8.0520    -8.8820    -1.5040 C8            1 Compound
      12 C9          -6.7390    -8.5480    -1.7170 C9            1 Compound
      13 S10         -6.2870    -6.9390    -1.1050 S10           1 Compound
      14 C11         -8.0260    -6.6350    -0.5780 C11           1 Compound
      15 C12         -8.7800    -7.8920    -0.8860 C12           1 Compound
      16 H13         -8.4710    -9.8340    -1.8000 H13           1 Compound
      17 H14         -6.0280    -9.2150    -2.1850 H14           1 Compound
      18 H15         -9.8280    -8.0150    -0.6520 H15           1 Compound
      19 C16         -6.8670    -0.7640    -0.7360 C16           1 Compound
      20 C17         -5.3750    -0.4170    -0.3540 C17           1 Compound
      21 C18         -5.0110     1.0870    -0.2810 C18           1 Compound
      22 C19         -5.3310     1.8680    -1.5620 C19           1 Compound
      23 C20         -4.6330     3.2400    -1.6090 C20           1 Compound
      24 C20         -5.0130     4.1750    -0.4510 C20           1 Compound
      25 C20         -4.3230     5.5330    -0.6170 C20           1 Compound
      26 C21         -4.4560     6.5150     0.5660 C21           1 Compound
      27 C22         -5.8780     6.9740     0.9370 C22           1 Compound
      28 C23         -6.6460     5.9950     1.8310 C23           1 Compound
      29 C18         -4.8160    -1.0920     0.9380 C18           1 Compound
      30 C24         -4.8650    -2.6240     1.0330 C24           1 Compound
      31 C20         -4.2250    -3.4070    -0.1300 C20           1 Compound
      32 C20         -2.7060    -3.1940    -0.2790 C20           1 Compound
      33 C20         -2.1020    -3.9980    -1.4530 C20           1 Compound
      34 C20         -2.1560    -5.5260    -1.2440 C20           1 Compound
      35 C20         -1.6510    -6.3380    -2.4510 C20           1 Compound
      36 C21         -0.1630    -6.1200    -2.7770 C21           1 Compound
      37 C22          0.3100    -6.9430    -3.9910 C22           1 Compound
      38 C23          0.2630    -8.4560    -3.7630 C23           1 Compound
      39 H25         -7.1780    -0.2160    -1.6520 H25           1 Compound
      40 H25         -6.8040    -1.8040    -1.0710 H25           1 Compound
      41 H26         -4.7650    -0.7970    -1.2040 H26           1 Compound
      42 H27         -5.4690     1.5760     0.5950 H27           1 Compound
      43 H28         -3.9070     1.1420    -0.1380 H28           1 Compound
      44 H29         -6.4300     1.9910    -1.6650 H29           1 Compound
      45 H29         -4.9550     1.2940    -2.4380 H29           1 Compound
      46 H29         -4.9020     3.7240    -2.5730 H29           1 Compound
      47 H29         -3.5310     3.0830    -1.5990 H29           1 Compound
      48 H29         -4.6920     3.7270     0.5130 H29           1 Compound
      49 H29         -6.1100     4.3080    -0.4750 H29           1 Compound
      50 H29         -3.2310     5.3590    -0.7500 H29           1 Compound
      51 H29         -4.7050     6.0170    -1.5430 H29           1 Compound
      52 H29         -3.9010     7.4240     0.2420 H29           1 Compound
      53 H29         -3.9390     6.1250     1.4710 H29           1 Compound
      54 H30         -5.7720     7.9000     1.5450 H30           1 Compound
      55 H30         -6.4530     7.2340     0.0230 H30           1 Compound
      56 H31         -6.8600     5.0270     1.3540 H31           1 Compound
      57 H31         -7.6220     6.4460     2.1080 H31           1 Compound
      58 H31         -6.0720     5.8080     2.7640 H31           1 Compound
      59 H28         -5.3510    -0.6800     1.8220 H28           1 Compound
      60 H28         -3.7460    -0.8070     1.0470 H28           1 Compound
      61 H29         -5.9150    -2.9180     1.1230 H29           1 Compound
      62 H29         -4.3780    -2.9350     1.9830 H29           1 Compound
      63 H29         -4.7290    -3.1450    -1.0820 H29           1 Compound
      64 H29         -4.4230    -4.4780     0.0790 H29           1 Compound
      65 H29         -2.5220    -2.1170    -0.4840 H29           1 Compound
      66 H29         -2.1840    -3.4630     0.6660 H29           1 Compound
      67 H29         -2.6370    -3.7250    -2.3880 H29           1 Compound
      68 H29         -1.0390    -3.6910    -1.5560 H29           1 Compound
      69 H29         -3.2060    -5.8410    -1.0910 H29           1 Compound
      70 H29         -1.5740    -5.8010    -0.3360 H29           1 Compound
      71 H29         -1.8130    -7.4080    -2.2050 H29           1 Compound
      72 H29         -2.2680    -6.0870    -3.3420 H29           1 Compound
      73 H29          0.4620    -6.3720    -1.8940 H29           1 Compound
      74 H29          0.0000    -5.0520    -3.0310 H29           1 Compound
      75 H30          1.3650    -6.6680    -4.2060 H30           1 Compound
      76 H30         -0.3010    -6.6860    -4.8830 H30           1 Compound
      77 H31         -0.7750    -8.8120    -3.6050 H31           1 Compound
      78 H31          0.8880    -8.7340    -2.8890 H31           1 Compound
      79 H31          0.6620    -8.9750    -4.6620 H31           1 Compound
      80 C32        -13.1190     0.7600    -0.8360 C32           1 Compound
      81 C17        -14.6180     0.4210    -0.4750 C17           1 Compound
      82 C18        -14.9860    -1.0830    -0.4070 C18           1 Compound
      83 C19        -14.6620    -1.8620    -1.6890 C19           1 Compound
      84 C20        -15.3640    -3.2310    -1.7440 C20           1 Compound
      85 C33        -14.9900    -4.1720    -0.5900 C33           1 Compound
      86 C33        -15.6820    -5.5290    -0.7620 C33           1 Compound
      87 C21        -15.5490    -6.5150     0.4160 C21           1 Compound
      88 C22        -14.1270    -6.9770     0.7850 C22           1 Compound
      89 C23        -13.3570    -6.0030     1.6840 C23           1 Compound
      90 C18        -15.1900     1.0990     0.8070 C18           1 Compound
      91 C19        -15.1350     2.6320     0.8990 C19           1 Compound
      92 C34        -15.7630     3.4140    -0.2710 C34           1 Compound
      93 C33        -17.2800     3.1970    -0.4330 C33           1 Compound
      94 C34        -17.8750     4.0030    -1.6100 C34           1 Compound
      95 C20        -17.8360     5.5300    -1.3930 C20           1 Compound
      96 C20        -18.3390     6.3440    -2.6000 C20           1 Compound
      97 C21        -19.8230     6.1160    -2.9400 C21           1 Compound
      98 C22        -20.2940     6.9410    -4.1530 C22           1 Compound
      99 C23        -20.2640     8.4530    -3.9170 C23           1 Compound
     100 H25        -12.7870     0.1970    -1.7350 H25           1 Compound
     101 H25        -13.1760     1.7930    -1.1920 H25           1 Compound
     102 H35        -15.2140     0.8000    -1.3360 H35           1 Compound
     103 H36        -14.5340    -1.5760     0.4690 H36           1 Compound
     104 H36        -16.0910    -1.1350    -0.2720 H36           1 Compound
     105 H37        -13.5630    -1.9890    -1.7880 H37           1 Compound
     106 H37        -15.0320    -1.2840    -2.5650 H37           1 Compound
     107 H38        -15.0940    -3.7120    -2.7100 H38           1 Compound
     108 H38        -16.4660    -3.0710    -1.7370 H38           1 Compound
     109 H38        -15.3120    -3.7270     0.3760 H38           1 Compound
     110 H38        -13.8930    -4.3080    -0.6130 H38           1 Compound
     111 H29        -16.7730    -5.3530    -0.8950 H29           1 Compound
     112 H29        -15.3000    -6.0090    -1.6900 H29           1 Compound
     113 H29        -16.1050    -7.4220     0.0880 H29           1 Compound
     114 H29        -16.0650    -6.1290     1.3230 H29           1 Compound
     115 H30        -14.2320    -7.9060     1.3870 H30           1 Compound
     116 H30        -13.5520    -7.2320    -0.1320 H30           1 Compound
     117 H31        -13.1440    -5.0330     1.2130 H31           1 Compound
     118 H31        -12.3810    -6.4570     1.9570 H31           1 Compound
     119 H31        -13.9300    -5.8220     2.6180 H31           1 Compound
     120 H28        -14.6660     0.6870     1.6970 H28           1 Compound
     121 H28        -16.2620     0.8180     0.9030 H28           1 Compound
     122 H29        -14.0840     2.9230     1.0000 H29           1 Compound
     123 H29        -15.6310     2.9440     1.8440 H29           1 Compound
     124 H29        -15.2500     3.1520    -1.2180 H29           1 Compound
     125 H39        -15.5680     4.4850    -0.0610 H39           1 Compound
     126 H39        -17.4600     2.1210    -0.6430 H39           1 Compound
     127 H29        -17.8110     3.4630     0.5060 H29           1 Compound
     128 H29        -17.3330     3.7380    -2.5410 H29           1 Compound
     129 H29        -18.9360     3.6900    -1.7230 H29           1 Compound
     130 H29        -16.7890     5.8530    -1.2300 H29           1 Compound
     131 H29        -18.4270     5.7970    -0.4890 H29           1 Compound
     132 H29        -18.1880     7.4140    -2.3480 H29           1 Compound
     133 H29        -17.7140     6.1040    -3.4880 H29           1 Compound
     134 H29        -20.4570     6.3580    -2.0590 H29           1 Compound
     135 H29        -19.9750     5.0480    -3.1990 H29           1 Compound
     136 H30        -21.3450     6.6570    -4.3770 H30           1 Compound
     137 H30        -19.6730     6.6930    -5.0410 H30           1 Compound
     138 H31        -19.2310     8.8170    -3.7470 H31           1 Compound
     139 H31        -20.8990     8.7200    -3.0450 H31           1 Compound
     140 H31        -20.6600     8.9730    -4.8150 H31           1 Compound
     141 C8         -11.9490     8.8800    -1.6110 C8            1 Compound
     142 C9         -13.2560     8.5410    -1.8500 C9            1 Compound
     143 S10        -13.7070     6.9210    -1.2680 S10           1 Compound
     144 C11        -11.9770     6.6240    -0.7120 C11           1 Compound
     145 C12        -11.2250     7.8870    -0.9930 C12           1 Compound
     146 H13        -11.5310     9.8390    -1.8850 H13           1 Compound
     147 H14        -13.9640     9.2110    -2.3200 H14           1 Compound
     148 H15        -10.1810     8.0150    -0.7410 H15           1 Compound
     149 C40        -10.0420    -5.1120    -0.6490 C40           1 Compound
     150 C41         -8.6720    -5.4320    -1.3000 C41           1 Compound
     151 C42         -7.7950    -4.1760    -1.2600 C42           1 Compound
     152 N43         -7.8890    -3.5440     0.0480 N43           1 Compound
     153 C44         -9.1900    -2.8890     0.2250 C44           1 Compound
     154 C45        -10.3200    -3.6020    -0.5720 C45           1 Compound
     155 H46        -10.8540    -5.6700    -1.1610 H46           1 Compound
     156 H47         -6.7450    -4.3410    -1.5690 H47           1 Compound
     157 H48        -11.3130    -3.3940    -0.1280 H48           1 Compound
     158 C40         -9.9510     5.1160    -0.7560 C40           1 Compound
     159 C41        -11.3100     5.4300    -1.4310 C41           1 Compound
     160 C42        -12.1800     4.1700    -1.4090 C42           1 Compound
     161 N43        -12.1190     3.5520    -0.0910 N43           1 Compound
     162 C49        -10.8190     2.9060     0.1310 C49           1 Compound
     163 C45         -9.6740     3.6060    -0.6520 C45           1 Compound
     164 H46         -9.1300     5.6650    -1.2620 H46           1 Compound
     165 H47        -13.2230     4.3270    -1.7440 H47           1 Compound
     166 H48         -8.6900     3.4050    -0.1850 H48           1 Compound
@<TRIPOS>BOND
       1        2        1 1
       2        9        1 1
       3       19        1 1
       4        3        2 1
       5      153        2 1
       6        4        3 1
       7        8        3 1
       8        5        4 1
       9        6        4 1
      10        7        6 1
      11       80        6 1
      12        8        7 1
      13      162        7 1
      14        9        8 1
      15       10        9 1
      16       12       11 1
      17       15       11 1
      18       16       11 1
      19       13       12 1
      20       17       12 1
      21       14       13 1
      22       15       14 1
      23      150       14 1
      24       18       15 1
      25       20       19 1
      26       39       19 1
      27       40       19 1
      28       21       20 1
      29       29       20 1
      30       41       20 1
      31       22       21 1
      32       42       21 1
      33       43       21 1
      34       23       22 1
      35       44       22 1
      36       45       22 1
      37       24       23 1
      38       46       23 1
      39       47       23 1
      40       25       24 1
      41       48       24 1
      42       49       24 1
      43       26       25 1
      44       50       25 1
      45       51       25 1
      46       27       26 1
      47       52       26 1
      48       53       26 1
      49       28       27 1
      50       54       27 1
      51       55       27 1
      52       56       28 1
      53       57       28 1
      54       58       28 1
      55       30       29 1
      56       59       29 1
      57       60       29 1
      58       31       30 1
      59       61       30 1
      60       62       30 1
      61       32       31 1
      62       63       31 1
      63       64       31 1
      64       33       32 1
      65       65       32 1
      66       66       32 1
      67       34       33 1
      68       67       33 1
      69       68       33 1
      70       35       34 1
      71       69       34 1
      72       70       34 1
      73       36       35 1
      74       71       35 1
      75       72       35 1
      76       37       36 1
      77       73       36 1
      78       74       36 1
      79       38       37 1
      80       75       37 1
      81       76       37 1
      82       77       38 1
      83       78       38 1
      84       79       38 1
      85       81       80 1
      86      100       80 1
      87      101       80 1
      88       82       81 1
      89       90       81 1
      90      102       81 1
      91       83       82 1
      92      103       82 1
      93      104       82 1
      94       84       83 1
      95      105       83 1
      96      106       83 1
      97       85       84 1
      98      107       84 1
      99      108       84 1
     100       86       85 1
     101      109       85 1
     102      110       85 1
     103       87       86 1
     104      111       86 1
     105      112       86 1
     106       88       87 1
     107      113       87 1
     108      114       87 1
     109       89       88 1
     110      115       88 1
     111      116       88 1
     112      117       89 1
     113      118       89 1
     114      119       89 1
     115       91       90 1
     116      120       90 1
     117      121       90 1
     118       92       91 1
     119      122       91 1
     120      123       91 1
     121       93       92 1
     122      124       92 1
     123      125       92 1
     124       94       93 1
     125      126       93 1
     126      127       93 1
     127       95       94 1
     128      128       94 1
     129      129       94 1
     130       96       95 1
     131      130       95 1
     132      131       95 1
     133       97       96 1
     134      132       96 1
     135      133       96 1
     136       98       97 1
     137      134       97 1
     138      135       97 1
     139       99       98 1
     140      136       98 1
     141      137       98 1
     142      138       99 1
     143      139       99 1
     144      140       99 1
     145      142      141 1
     146      145      141 1
     147      146      141 1
     148      143      142 1
     149      147      142 1
     150      144      143 1
     151      145      144 1
     152      159      144 1
     153      148      145 1
     154      150      149 1
     155      154      149 1
     156      155      149 1
     157      151      150 1
     158      152      151 1
     159      156      151 1
     160      153      152 1
     161      154      153 1
     162      157      154 1
     163      159      158 1
     164      163      158 1
     165      164      158 1
     166      160      159 1
     167      161      160 1
     168      165      160 1
     169      162      161 1
     170      163      162 1
     171      166      163 1
@<TRIPOS>SUBSTRUCTURE
       1 Compound        1 RESIDUE    0 **** ROOT      0
