@<TRIPOS>MOLECULE
RES
166 171 1 0 1
SMALL
NO_CHARGES
@<TRIPOS>CRYSIN
   27.2933    23.0656    15.0707    90.0000    90.0000    90.0000 1 1
@<TRIPOS>ATOM
       1 N0           2.1244    12.6410     9.8852 N0            1 RES     
       2 C1           2.8016    11.3940     9.5811 C1            1 RES     
       3 C1           1.8550    10.4471     9.3965 C1            1 RES     
       4 C1           1.6526     9.0328     9.1337 C1            1 RES     
       5 O2           2.5187     8.2084     8.9019 O2            1 RES     
       6 N0           0.3370     8.7340     9.2947 N0            1 RES     
       7 C1          -0.3722     9.9657     9.5551 C1            1 RES     
       8 C1           0.5505    10.9662     9.6140 C1            1 RES     
       9 C1           0.7791    12.3916     9.8369 C1            1 RES     
      10 O2          -0.0755    13.2482     9.9924 O2            1 RES     
      11 C1          10.5411     9.4273     9.7936 C1            1 RES     
      12 C1           9.2033     9.4363     9.4670 C1            1 RES     
      13 C1           8.5151    10.4536     9.9966 C1            1 RES     
      14 S3           9.5358    11.5470    11.0086 S3            1 RES     
      15 C1          10.9005    10.4745    10.6072 C1            1 RES     
      16 H4          11.2360     8.6732     9.4491 H4            1 RES     
      17 H4           8.7788     8.6682     8.8388 H4            1 RES     
      18 C1          -8.2487    10.8983    10.5770 C1            1 RES     
      19 C1          -6.8955    11.1454    10.5208 C1            1 RES     
      20 C1          -6.1550    10.0865    10.1698 C1            1 RES     
      21 S3          -7.1422     8.6065     9.8627 S3            1 RES     
      22 C1          -8.5681     9.6002    10.2616 C1            1 RES     
      23 H4          -8.9833    11.6486    10.8386 H4            1 RES     
      24 H4          -6.5030    12.1263    10.7423 H4            1 RES     
      25 C1           6.2480     9.8428     9.0075 C1            1 RES     
      26 C1           7.0487    10.6807     9.8054 C1            1 RES     
      27 C1           6.4172    11.7608    10.4373 C1            1 RES     
      28 N0           5.0824    11.9543    10.2957 N0            1 RES     
      29 C1           4.2800    11.1502     9.5649 C1            1 RES     
      30 C1           4.8755    10.0752     8.8873 C1            1 RES     
      31 H4           6.6620     8.9994     8.4767 H4            1 RES     
      32 H5           6.9682    12.4483    11.0629 H5            1 RES     
      33 H4           4.3114     9.4168     8.2598 H4            1 RES     
      34 C1          -3.8975    11.2397    10.3294 C1            1 RES     
      35 C1          -4.6648    10.0997    10.0320 C1            1 RES     
      36 C1          -3.9780     8.9541     9.5943 C1            1 RES     
      37 N0          -2.6252     8.9679     9.4611 N0            1 RES     
      38 C1          -1.8584    10.0566     9.7409 C1            1 RES     
      39 C1          -2.5074    11.2176    10.1876 C1            1 RES     
      40 H4          -4.3452    12.1550    10.6780 H4            1 RES     
      41 H5          -4.5077     8.0440     9.3516 H5            1 RES     
      42 H4          -1.9727    12.1047    10.4435 H4            1 RES     
      43 C6           2.6668    13.9954    10.1076 C6            1 RES     
      44 C6           3.4851    14.2513    11.4264 C6            1 RES     
      45 C6           3.6093    15.7820    11.6441 C6            1 RES     
      46 C6           4.5061    16.1784    12.8288 C6            1 RES     
      47 C6           4.6620    17.7076    12.9699 C6            1 RES     
      48 C6           5.3945    18.4101    11.8020 C6            1 RES     
      49 C6           6.8302    17.9141    11.5313 C6            1 RES     
      50 C6           7.7684    18.1064    12.7376 C6            1 RES     
      51 C6           9.2006    17.6058    12.4865 C6            1 RES     
      52 C6           9.9495    18.4090    11.4080 C6            1 RES     
      53 C6          11.4217    17.9864    11.2644 C6            1 RES     
      54 C6          11.5942    16.5507    10.7668 C6            1 RES     
      55 C6           2.9423    13.4581    12.6452 C6            1 RES     
      56 C6           1.4973    13.7949    13.0660 C6            1 RES     
      57 C6           0.6823    12.5028    13.2592 C6            1 RES     
      58 C6          -0.8146    12.7632    13.4405 C6            1 RES     
      59 C6          -1.1660    13.2180    14.8551 C6            1 RES     
      60 C6          -2.6821    13.4410    14.9651 C6            1 RES     
      61 C6          -3.1492    13.7433    16.3948 C6            1 RES     
      62 C6          -2.9874    12.5435    17.3322 C6            1 RES     
      63 H7           1.8061    14.6965    10.1514 H7            1 RES     
      64 H7           3.2595    14.3184     9.2252 H7            1 RES     
      65 H8           4.5169    13.9090    11.2874 H8            1 RES     
      66 H8           2.6026    16.2311    11.7890 H8            1 RES     
      67 H8           4.0464    16.2025    10.7143 H8            1 RES     
      68 H8           5.5056    15.7056    12.7340 H8            1 RES     
      69 H8           4.0407    15.8046    13.7646 H8            1 RES     
      70 H8           5.2070    17.9192    13.9124 H8            1 RES     
      71 H8           3.6533    18.1628    13.0775 H8            1 RES     
      72 H8           5.4346    19.4989    12.0242 H8            1 RES     
      73 H8           4.8032    18.2971    10.8698 H8            1 RES     
      74 H8           6.8113    16.8442    11.2353 H8            1 RES     
      75 H8           7.2169    18.4952    10.6685 H8            1 RES     
      76 H8           7.3769    17.5208    13.5944 H8            1 RES     
      77 H8           7.7955    19.1792    13.0292 H8            1 RES     
      78 H8           9.7606    17.7076    13.4420 H8            1 RES     
      79 H8           9.1598    16.5292    12.2191 H8            1 RES     
      80 H8           9.4499    18.3079    10.4223 H8            1 RES     
      81 H8           9.9360    19.4821    11.6995 H8            1 RES     
      82 H8          11.9450    18.1064    12.2381 H8            1 RES     
      83 H8          11.9057    18.6639    10.5279 H8            1 RES     
      84 H8          11.1802    15.8205    11.4911 H8            1 RES     
      85 H8          11.0925    16.4219     9.7843 H8            1 RES     
      86 H8          12.6759    16.3317    10.6445 H8            1 RES     
      87 H8           3.6107    13.5367    13.5304 H8            1 RES     
      88 H8           3.0149    12.3902    12.3456 H8            1 RES     
      89 H8           1.4998    14.4399    13.9724 H8            1 RES     
      90 H8           1.0011    14.3691    12.2610 H8            1 RES     
      91 H8           1.0882    11.8651    14.0735 H8            1 RES     
      92 H8           0.7724    11.9172    12.3272 H8            1 RES     
      93 H8          -1.1678    13.4929    12.6774 H8            1 RES     
      94 H8          -1.3477    11.8035    13.2611 H8            1 RES     
      95 H8          -0.8405    12.4108    15.5422 H8            1 RES     
      96 H8          -0.6316    14.1550    15.1214 H8            1 RES     
      97 H8          -2.9512    14.2997    14.3110 H8            1 RES     
      98 H8          -3.2325    12.5458    14.5992 H8            1 RES     
      99 H8          -4.2317    13.9915    16.3535 H8            1 RES     
     100 H8          -2.6039    14.6226    16.7997 H8            1 RES     
     101 H8          -1.9222    12.2687    17.4658 H8            1 RES     
     102 H8          -3.4008    12.7946    18.3305 H8            1 RES     
     103 H8          -3.5418    11.6674    16.9307 H8            1 RES     
     104 C6          -0.1655     7.3526     9.2984 C6            1 RES     
     105 C6          -0.6001     6.8428    10.7242 C6            1 RES     
     106 C6          -0.7783     5.3032    10.6671 C6            1 RES     
     107 C6          -1.2430     4.6611    11.9863 C6            1 RES     
     108 C6          -1.3990     3.1284    11.8739 C6            1 RES     
     109 C6          -2.5184     2.6441    10.9239 C6            1 RES     
     110 C6          -3.9398     3.1111    11.2981 C6            1 RES     
     111 C6          -4.3920     2.6004    12.6796 C6            1 RES     
     112 C6          -5.7934     3.0850    13.0838 C6            1 RES     
     113 C6          -6.9156     2.5437    12.1809 C6            1 RES     
     114 C6          -8.3183     2.9323    12.6789 C6            1 RES     
     115 C6          -8.5760     4.4396    12.6495 C6            1 RES     
     116 C6           0.3580     7.3352    11.8527 C6            1 RES     
     117 C6           1.8358     6.8925    11.7379 C6            1 RES     
     118 C6           2.7615     8.0245    12.2390 C6            1 RES     
     119 C6           4.2276     7.8547    11.8207 C6            1 RES     
     120 C6           5.0343     6.9261    12.7237 C6            1 RES     
     121 C6           6.4725     6.8254    12.1797 C6            1 RES     
     122 C6           7.4485     6.1338    13.1392 C6            1 RES     
     123 C6           7.7498     6.9901    14.3729 C6            1 RES     
     124 H7           0.6514     6.6832     8.9542 H7            1 RES     
     125 H7          -0.9751     7.2191     8.5506 H7            1 RES     
     126 H8          -1.5837     7.2902    10.9734 H8            1 RES     
     127 H8           0.1858     4.8323    10.3740 H8            1 RES     
     128 H8          -1.5266     5.0883     9.8761 H8            1 RES     
     129 H8          -2.1901     5.1220    12.3348 H8            1 RES     
     130 H8          -0.4696     4.8483    12.7601 H8            1 RES     
     131 H8          -1.5816     2.7153    12.8865 H8            1 RES     
     132 H8          -0.4337     2.6966    11.5296 H8            1 RES     
     133 H8          -2.5069     1.5321    10.9104 H8            1 RES     
     134 H8          -2.2968     2.9789     9.8895 H8            1 RES     
     135 H8          -3.9938     4.2192    11.2663 H8            1 RES     
     136 H8          -4.6276     2.7175    10.5210 H8            1 RES     
     137 H8          -3.6970     2.9837    13.4537 H8            1 RES     
     138 H8          -4.3612     1.4888    12.7000 H8            1 RES     
     139 H8          -5.9822     2.7295    14.1207 H8            1 RES     
     140 H8          -5.7951     4.1948    13.0893 H8            1 RES     
     141 H8          -6.7920     2.9063    11.1393 H8            1 RES     
     142 H8          -6.8561     1.4333    12.1755 H8            1 RES     
     143 H8          -8.4699     2.5512    13.7124 H8            1 RES     
     144 H8          -9.0672     2.4439    12.0185 H8            1 RES     
     145 H8          -7.8948     4.9785    13.3387 H8            1 RES     
     146 H8          -8.4452     4.8323    11.6189 H8            1 RES     
     147 H8          -9.6175     4.6409    12.9774 H8            1 RES     
     148 H8          -0.0175     7.1017    12.8715 H8            1 RES     
     149 H8           0.2960     8.4414    11.7898 H8            1 RES     
     150 H8           2.0123     5.9144    12.2340 H8            1 RES     
     151 H8           2.0774     6.7360    10.6787 H8            1 RES     
     152 H8           2.6532     8.2154    13.3282 H8            1 RES     
     153 H8           2.4411     8.9504    11.7184 H8            1 RES     
     154 H8           4.2821     7.5341    10.7574 H8            1 RES     
     155 H8           4.7112     8.8552    11.8897 H8            1 RES     
     156 H8           5.0229     7.3777    13.7365 H8            1 RES     
     157 H8           4.5828     5.9121    12.7781 H8            1 RES     
     158 H8           6.4329     6.2546    11.2255 H8            1 RES     
     159 H8           6.8804     7.8359    11.9516 H8            1 RES     
     160 H8           8.4094     5.9863    12.6000 H8            1 RES     
     161 H8           7.0588     5.1377    13.4393 H8            1 RES     
     162 H8           6.8449     7.1546    14.9903 H8            1 RES     
     163 H8           8.5089     6.4823    15.0026 H8            1 RES     
     164 H8           8.1583     7.9764    14.0602 H8            1 RES     
     165 H5          11.9077    10.6316    10.9686 H5            1 RES     
     166 H5          -9.5814     9.2218    10.2526 H5            1 RES     
@<TRIPOS>BOND
       1        1        2 1
       2        1        9 1
       3        1       43 1
       4        2        3 1
       5        2       29 1
       6        3        4 1
       7        3        8 1
       8        4        5 1
       9        4        6 1
      10        6        7 1
      11        6      104 1
      12        7        8 1
      13        7       38 1
      14        8        9 1
      15        9       10 1
      16       11       12 1
      17       11       15 1
      18       11       16 1
      19       12       13 1
      20       12       17 1
      21       13       14 1
      22       13       26 1
      23       14       15 1
      24       15      165 1
      25       18       19 1
      26       18       22 1
      27       18       23 1
      28       19       20 1
      29       19       24 1
      30       20       21 1
      31       20       35 1
      32       21       22 1
      33       22      166 1
      34       25       26 1
      35       25       30 1
      36       25       31 1
      37       26       27 1
      38       27       28 1
      39       27       32 1
      40       28       29 1
      41       29       30 1
      42       30       33 1
      43       34       35 1
      44       34       39 1
      45       34       40 1
      46       35       36 1
      47       36       37 1
      48       36       41 1
      49       37       38 1
      50       38       39 1
      51       39       42 1
      52       43       44 1
      53       43       63 1
      54       43       64 1
      55       44       45 1
      56       44       55 1
      57       44       65 1
      58       45       46 1
      59       45       66 1
      60       45       67 1
      61       46       47 1
      62       46       68 1
      63       46       69 1
      64       47       48 1
      65       47       70 1
      66       47       71 1
      67       48       49 1
      68       48       72 1
      69       48       73 1
      70       49       50 1
      71       49       74 1
      72       49       75 1
      73       50       51 1
      74       50       76 1
      75       50       77 1
      76       51       52 1
      77       51       78 1
      78       51       79 1
      79       52       53 1
      80       52       80 1
      81       52       81 1
      82       53       54 1
      83       53       82 1
      84       53       83 1
      85       54       84 1
      86       54       85 1
      87       54       86 1
      88       55       56 1
      89       55       87 1
      90       55       88 1
      91       56       57 1
      92       56       89 1
      93       56       90 1
      94       57       58 1
      95       57       91 1
      96       57       92 1
      97       58       59 1
      98       58       93 1
      99       58       94 1
     100       59       60 1
     101       59       95 1
     102       59       96 1
     103       60       61 1
     104       60       97 1
     105       60       98 1
     106       61       62 1
     107       61       99 1
     108       61      100 1
     109       62      101 1
     110       62      102 1
     111       62      103 1
     112      104      105 1
     113      104      124 1
     114      104      125 1
     115      105      106 1
     116      105      116 1
     117      105      126 1
     118      106      107 1
     119      106      127 1
     120      106      128 1
     121      107      108 1
     122      107      129 1
     123      107      130 1
     124      108      109 1
     125      108      131 1
     126      108      132 1
     127      109      110 1
     128      109      133 1
     129      109      134 1
     130      110      111 1
     131      110      135 1
     132      110      136 1
     133      111      112 1
     134      111      137 1
     135      111      138 1
     136      112      113 1
     137      112      139 1
     138      112      140 1
     139      113      114 1
     140      113      141 1
     141      113      142 1
     142      114      115 1
     143      114      143 1
     144      114      144 1
     145      115      145 1
     146      115      146 1
     147      115      147 1
     148      116      117 1
     149      116      148 1
     150      116      149 1
     151      117      118 1
     152      117      150 1
     153      117      151 1
     154      118      119 1
     155      118      152 1
     156      118      153 1
     157      119      120 1
     158      119      154 1
     159      119      155 1
     160      120      121 1
     161      120      156 1
     162      120      157 1
     163      121      122 1
     164      121      158 1
     165      121      159 1
     166      122      123 1
     167      122      160 1
     168      122      161 1
     169      123      162 1
     170      123      163 1
     171      123      164 1
@<TRIPOS>SUBSTRUCTURE
       1 RES             1 RESIDUE    0 **** ROOT      0
