@<TRIPOS>MOLECULE
RES
166 171 1 0 1
SMALL
NO_CHARGES
@<TRIPOS>CRYSIN
   27.7100    24.6730    12.8050    90.0000    90.0000    90.0000  1  1
@<TRIPOS>ATOM
       1 N           -7.9020    -0.6540     0.3330 N             1 RES     
       2 C           -9.1650    -1.3530    -0.0320 C             1 RES     
       3 C          -10.2040    -0.6980     0.8740 C             1 RES     
       4 C          -11.6690    -0.7230     0.4330 C             1 RES     
       5 O          -12.4080    -1.3210     1.4520 O             1 RES     
       6 N          -12.1070     0.6740     0.2570 N             1 RES     
       7 C          -10.8360     1.3640    -0.0910 C             1 RES     
       8 C           -9.8240     0.7330     0.8620 C             1 RES     
       9 C           -8.3460     0.7460     0.4640 C             1 RES     
      10 O           -7.6360     1.3690     1.4880 O             1 RES     
      11 C           -8.0520    -8.8820    -1.5040 C             1 RES     
      12 C           -6.7390    -8.5480    -1.7170 C             1 RES     
      13 S           -6.2870    -6.9390    -1.1050 S             1 RES     
      14 C           -8.0260    -6.6350    -0.5780 C             1 RES     
      15 C           -8.7800    -7.8920    -0.8860 C             1 RES     
      16 H           -8.4710    -9.8340    -1.8000 H             1 RES     
      17 H           -6.0280    -9.2150    -2.1850 H             1 RES     
      18 H           -9.8280    -8.0150    -0.6520 H             1 RES     
      19 C           -6.8670    -0.7640    -0.7360 C             1 RES     
      20 C           -5.3750    -0.4170    -0.3540 C             1 RES     
      21 C           -5.0110     1.0870    -0.2810 C             1 RES     
      22 C           -5.3310     1.8680    -1.5620 C             1 RES     
      23 C           -4.6330     3.2400    -1.6090 C             1 RES     
      24 C           -5.0130     4.1750    -0.4510 C             1 RES     
      25 C           -4.3230     5.5330    -0.6170 C             1 RES     
      26 C           -4.4560     6.5150     0.5660 C             1 RES     
      27 C           -5.8780     6.9740     0.9370 C             1 RES     
      28 C           -6.6460     5.9950     1.8310 C             1 RES     
      29 C           -4.8160    -1.0920     0.9380 C             1 RES     
      30 C           -4.8650    -2.6240     1.0330 C             1 RES     
      31 C           -4.2250    -3.4070    -0.1300 C             1 RES     
      32 C           -2.7060    -3.1940    -0.2790 C             1 RES     
      33 C           -2.1020    -3.9980    -1.4530 C             1 RES     
      34 C           -2.1560    -5.5260    -1.2440 C             1 RES     
      35 C           -1.6510    -6.3380    -2.4510 C             1 RES     
      36 C           -0.1630    -6.1200    -2.7770 C             1 RES     
      37 C            0.3100    -6.9430    -3.9910 C             1 RES     
      38 C            0.2630    -8.4560    -3.7630 C             1 RES     
      39 H           -7.1780    -0.2160    -1.6520 H             1 RES     
      40 H           -6.8040    -1.8040    -1.0710 H             1 RES     
      41 H           -4.7650    -0.7970    -1.2040 H             1 RES     
      42 H           -5.4690     1.5760     0.5950 H             1 RES     
      43 H           -3.9070     1.1420    -0.1380 H             1 RES     
      44 H           -6.4300     1.9910    -1.6650 H             1 RES     
      45 H           -4.9550     1.2940    -2.4380 H             1 RES     
      46 H           -4.9020     3.7240    -2.5730 H             1 RES     
      47 H           -3.5310     3.0830    -1.5990 H             1 RES     
      48 H           -4.6920     3.7270     0.5130 H             1 RES     
      49 H           -6.1100     4.3080    -0.4750 H             1 RES     
      50 H           -3.2310     5.3590    -0.7500 H             1 RES     
      51 H           -4.7050     6.0170    -1.5430 H             1 RES     
      52 H           -3.9010     7.4240     0.2420 H             1 RES     
      53 H           -3.9390     6.1250     1.4710 H             1 RES     
      54 H           -5.7720     7.9000     1.5450 H             1 RES     
      55 H           -6.4530     7.2340     0.0230 H             1 RES     
      56 H           -6.8600     5.0270     1.3540 H             1 RES     
      57 H           -7.6220     6.4460     2.1080 H             1 RES     
      58 H           -6.0720     5.8080     2.7640 H             1 RES     
      59 H           -5.3510    -0.6800     1.8220 H             1 RES     
      60 H           -3.7460    -0.8070     1.0470 H             1 RES     
      61 H           -5.9150    -2.9180     1.1230 H             1 RES     
      62 H           -4.3780    -2.9350     1.9830 H             1 RES     
      63 H           -4.7290    -3.1450    -1.0820 H             1 RES     
      64 H           -4.4230    -4.4780     0.0790 H             1 RES     
      65 H           -2.5220    -2.1170    -0.4840 H             1 RES     
      66 H           -2.1840    -3.4630     0.6660 H             1 RES     
      67 H           -2.6370    -3.7250    -2.3880 H             1 RES     
      68 H           -1.0390    -3.6910    -1.5560 H             1 RES     
      69 H           -3.2060    -5.8410    -1.0910 H             1 RES     
      70 H           -1.5740    -5.8010    -0.3360 H             1 RES     
      71 H           -1.8130    -7.4080    -2.2050 H             1 RES     
      72 H           -2.2680    -6.0870    -3.3420 H             1 RES     
      73 H            0.4620    -6.3720    -1.8940 H             1 RES     
      74 H            0.0000    -5.0520    -3.0310 H             1 RES     
      75 H            1.3650    -6.6680    -4.2060 H             1 RES     
      76 H           -0.3010    -6.6860    -4.8830 H             1 RES     
      77 H           -0.7750    -8.8120    -3.6050 H             1 RES     
      78 H            0.8880    -8.7340    -2.8890 H             1 RES     
      79 H            0.6620    -8.9750    -4.6620 H             1 RES     
      80 C          -13.1190     0.7600    -0.8360 C             1 RES     
      81 C          -14.6180     0.4210    -0.4750 C             1 RES     
      82 C          -14.9860    -1.0830    -0.4070 C             1 RES     
      83 C          -14.6620    -1.8620    -1.6890 C             1 RES     
      84 C          -15.3640    -3.2310    -1.7440 C             1 RES     
      85 C          -14.9900    -4.1720    -0.5900 C             1 RES     
      86 C          -15.6820    -5.5290    -0.7620 C             1 RES     
      87 C          -15.5490    -6.5150     0.4160 C             1 RES     
      88 C          -14.1270    -6.9770     0.7850 C             1 RES     
      89 C          -13.3570    -6.0030     1.6840 C             1 RES     
      90 C          -15.1900     1.0990     0.8070 C             1 RES     
      91 C          -15.1350     2.6320     0.8990 C             1 RES     
      92 C          -15.7630     3.4140    -0.2710 C             1 RES     
      93 C          -17.2800     3.1970    -0.4330 C             1 RES     
      94 C          -17.8750     4.0030    -1.6100 C             1 RES     
      95 C          -17.8360     5.5300    -1.3930 C             1 RES     
      96 C          -18.3390     6.3440    -2.6000 C             1 RES     
      97 C          -19.8230     6.1160    -2.9400 C             1 RES     
      98 C          -20.2940     6.9410    -4.1530 C             1 RES     
      99 C          -20.2640     8.4530    -3.9170 C             1 RES     
     100 H          -12.7870     0.1970    -1.7350 H             1 RES     
     101 H          -13.1760     1.7930    -1.1920 H             1 RES     
     102 H          -15.2140     0.8000    -1.3360 H             1 RES     
     103 H          -14.5340    -1.5760     0.4690 H             1 RES     
     104 H          -16.0910    -1.1350    -0.2720 H             1 RES     
     105 H          -13.5630    -1.9890    -1.7880 H             1 RES     
     106 H          -15.0320    -1.2840    -2.5650 H             1 RES     
     107 H          -15.0940    -3.7120    -2.7100 H             1 RES     
     108 H          -16.4660    -3.0710    -1.7370 H             1 RES     
     109 H          -15.3120    -3.7270     0.3760 H             1 RES     
     110 H          -13.8930    -4.3080    -0.6130 H             1 RES     
     111 H          -16.7730    -5.3530    -0.8950 H             1 RES     
     112 H          -15.3000    -6.0090    -1.6900 H             1 RES     
     113 H          -16.1050    -7.4220     0.0880 H             1 RES     
     114 H          -16.0650    -6.1290     1.3230 H             1 RES     
     115 H          -14.2320    -7.9060     1.3870 H             1 RES     
     116 H          -13.5520    -7.2320    -0.1320 H             1 RES     
     117 H          -13.1440    -5.0330     1.2130 H             1 RES     
     118 H          -12.3810    -6.4570     1.9570 H             1 RES     
     119 H          -13.9300    -5.8220     2.6180 H             1 RES     
     120 H          -14.6660     0.6870     1.6970 H             1 RES     
     121 H          -16.2620     0.8180     0.9030 H             1 RES     
     122 H          -14.0840     2.9230     1.0000 H             1 RES     
     123 H          -15.6310     2.9440     1.8440 H             1 RES     
     124 H          -15.2500     3.1520    -1.2180 H             1 RES     
     125 H          -15.5680     4.4850    -0.0610 H             1 RES     
     126 H          -17.4600     2.1210    -0.6430 H             1 RES     
     127 H          -17.8110     3.4630     0.5060 H             1 RES     
     128 H          -17.3330     3.7380    -2.5410 H             1 RES     
     129 H          -18.9360     3.6900    -1.7230 H             1 RES     
     130 H          -16.7890     5.8530    -1.2300 H             1 RES     
     131 H          -18.4270     5.7970    -0.4890 H             1 RES     
     132 H          -18.1880     7.4140    -2.3480 H             1 RES     
     133 H          -17.7140     6.1040    -3.4880 H             1 RES     
     134 H          -20.4570     6.3580    -2.0590 H             1 RES     
     135 H          -19.9750     5.0480    -3.1990 H             1 RES     
     136 H          -21.3450     6.6570    -4.3770 H             1 RES     
     137 H          -19.6730     6.6930    -5.0410 H             1 RES     
     138 H          -19.2310     8.8170    -3.7470 H             1 RES     
     139 H          -20.8990     8.7200    -3.0450 H             1 RES     
     140 H          -20.6600     8.9730    -4.8150 H             1 RES     
     141 C          -11.9490     8.8800    -1.6110 C             1 RES     
     142 C          -13.2560     8.5410    -1.8500 C             1 RES     
     143 S          -13.7070     6.9210    -1.2680 S             1 RES     
     144 C          -11.9770     6.6240    -0.7120 C             1 RES     
     145 C          -11.2250     7.8870    -0.9930 C             1 RES     
     146 H          -11.5310     9.8390    -1.8850 H             1 RES     
     147 H          -13.9640     9.2110    -2.3200 H             1 RES     
     148 H          -10.1810     8.0150    -0.7410 H             1 RES     
     149 C          -10.0420    -5.1120    -0.6490 C             1 RES     
     150 C           -8.6720    -5.4320    -1.3000 C             1 RES     
     151 C           -7.7950    -4.1760    -1.2600 C             1 RES     
     152 N           -7.8890    -3.5440     0.0480 N             1 RES     
     153 C           -9.1900    -2.8890     0.2250 C             1 RES     
     154 C          -10.3200    -3.6020    -0.5720 C             1 RES     
     155 H          -10.8540    -5.6700    -1.1610 H             1 RES     
     156 H           -6.7450    -4.3410    -1.5690 H             1 RES     
     157 H          -11.3130    -3.3940    -0.1280 H             1 RES     
     158 C           -9.9510     5.1160    -0.7560 C             1 RES     
     159 C          -11.3100     5.4300    -1.4310 C             1 RES     
     160 C          -12.1800     4.1700    -1.4090 C             1 RES     
     161 N          -12.1190     3.5520    -0.0910 N             1 RES     
     162 C          -10.8190     2.9060     0.1310 C             1 RES     
     163 C           -9.6740     3.6060    -0.6520 C             1 RES     
     164 H           -9.1300     5.6650    -1.2620 H             1 RES     
     165 H          -13.2230     4.3270    -1.7440 H             1 RES     
     166 H           -8.6900     3.4050    -0.1850 H             1 RES     
@<TRIPOS>BOND
       1        2        1 1
       2        9        1 1
       3       19        1 1
       4        3        2 1
       5      153        2 1
       6        4        3 1
       7        8        3 1
       8        5        4 1
       9        6        4 1
      10        7        6 1
      11       80        6 1
      12        8        7 1
      13      162        7 1
      14        9        8 1
      15       10        9 1
      16       12       11 1
      17       15       11 1
      18       16       11 1
      19       13       12 1
      20       17       12 1
      21       14       13 1
      22       15       14 1
      23      150       14 1
      24       18       15 1
      25       20       19 1
      26       39       19 1
      27       40       19 1
      28       21       20 1
      29       29       20 1
      30       41       20 1
      31       22       21 1
      32       42       21 1
      33       43       21 1
      34       23       22 1
      35       44       22 1
      36       45       22 1
      37       24       23 1
      38       46       23 1
      39       47       23 1
      40       25       24 1
      41       48       24 1
      42       49       24 1
      43       26       25 1
      44       50       25 1
      45       51       25 1
      46       27       26 1
      47       52       26 1
      48       53       26 1
      49       28       27 1
      50       54       27 1
      51       55       27 1
      52       56       28 1
      53       57       28 1
      54       58       28 1
      55       30       29 1
      56       59       29 1
      57       60       29 1
      58       31       30 1
      59       61       30 1
      60       62       30 1
      61       32       31 1
      62       63       31 1
      63       64       31 1
      64       33       32 1
      65       65       32 1
      66       66       32 1
      67       34       33 1
      68       67       33 1
      69       68       33 1
      70       35       34 1
      71       69       34 1
      72       70       34 1
      73       36       35 1
      74       71       35 1
      75       72       35 1
      76       37       36 1
      77       73       36 1
      78       74       36 1
      79       38       37 1
      80       75       37 1
      81       76       37 1
      82       77       38 1
      83       78       38 1
      84       79       38 1
      85       81       80 1
      86      100       80 1
      87      101       80 1
      88       82       81 1
      89       90       81 1
      90      102       81 1
      91       83       82 1
      92      103       82 1
      93      104       82 1
      94       84       83 1
      95      105       83 1
      96      106       83 1
      97       85       84 1
      98      107       84 1
      99      108       84 1
     100       86       85 1
     101      109       85 1
     102      110       85 1
     103       87       86 1
     104      111       86 1
     105      112       86 1
     106       88       87 1
     107      113       87 1
     108      114       87 1
     109       89       88 1
     110      115       88 1
     111      116       88 1
     112      117       89 1
     113      118       89 1
     114      119       89 1
     115       91       90 1
     116      120       90 1
     117      121       90 1
     118       92       91 1
     119      122       91 1
     120      123       91 1
     121       93       92 1
     122      124       92 1
     123      125       92 1
     124       94       93 1
     125      126       93 1
     126      127       93 1
     127       95       94 1
     128      128       94 1
     129      129       94 1
     130       96       95 1
     131      130       95 1
     132      131       95 1
     133       97       96 1
     134      132       96 1
     135      133       96 1
     136       98       97 1
     137      134       97 1
     138      135       97 1
     139       99       98 1
     140      136       98 1
     141      137       98 1
     142      138       99 1
     143      139       99 1
     144      140       99 1
     145      142      141 1
     146      145      141 1
     147      146      141 1
     148      143      142 1
     149      147      142 1
     150      144      143 1
     151      145      144 1
     152      159      144 1
     153      148      145 1
     154      150      149 1
     155      154      149 1
     156      155      149 1
     157      151      150 1
     158      152      151 1
     159      156      151 1
     160      153      152 1
     161      154      153 1
     162      157      154 1
     163      159      158 1
     164      163      158 1
     165      164      158 1
     166      160      159 1
     167      161      160 1
     168      165      160 1
     169      162      161 1
     170      163      162 1
     171      166      163 1
@<TRIPOS>SUBSTRUCTURE
       1 RES             1 RESIDUE    0 **** ROOT      0
