@<TRIPOS>MOLECULE
RES
32 36 1 0 1
SMALL
NO_CHARGES
@<TRIPOS>CRYSIN
   14.3308    11.8735     5.5873    90.0000    90.0000    90.0000 1 1
@<TRIPOS>ATOM
       1 C0           2.9396    -2.3111     0.0185 C0            1 RES     
       2 C0           3.5818    -1.0870    -0.0848 C0            1 RES     
       3 C0           2.8365     0.0905    -0.1884 C0            1 RES     
       4 C0           3.5053     1.3132    -0.2915 C0            1 RES     
       5 C0           2.7865     2.4938    -0.3954 C0            1 RES     
       6 C0           1.3947     2.4742    -0.3982 C0            1 RES     
       7 C0           0.6726     1.2564    -0.2957 C0            1 RES     
       8 C0          -0.7513     1.2110    -0.2965 C0            1 RES     
       9 C0          -1.5495     2.3802    -0.3996 C0            1 RES     
      10 C0          -2.9397     2.3111    -0.3982 C0            1 RES     
      11 C0          -3.5818     1.0870    -0.2949 C0            1 RES     
      12 C0          -2.8365    -0.0905    -0.1912 C0            1 RES     
      13 C0          -3.5053    -1.3132    -0.0882 C0            1 RES     
      14 C0          -2.7865    -2.4938     0.0157 C0            1 RES     
      15 C0          -1.3947    -2.4742     0.0185 C0            1 RES     
      16 C0          -0.6726    -1.2564    -0.0839 C0            1 RES     
      17 C0           0.7512    -1.2110    -0.0832 C0            1 RES     
      18 C0           1.5495    -2.3802     0.0200 C0            1 RES     
      19 C0           1.4129     0.0451    -0.1891 C0            1 RES     
      20 C0          -1.4129    -0.0451    -0.1905 C0            1 RES     
      21 H1           3.5250    -3.2185     0.0984 H1            1 RES     
      22 H1           4.6654    -1.0608    -0.0835 H1            1 RES     
      23 H1           4.5884     1.3561    -0.2916 H1            1 RES     
      24 H1           3.3129     3.4367    -0.4749 H1            1 RES     
      25 H1           0.9207     3.4360    -0.4824 H1            1 RES     
      26 H1          -1.1377     3.3703    -0.4835 H1            1 RES     
      27 H1          -3.5250     3.2185    -0.4781 H1            1 RES     
      28 H1          -4.6654     1.0608    -0.2961 H1            1 RES     
      29 H1          -4.5884    -1.3561    -0.0880 H1            1 RES     
      30 H1          -3.3129    -3.4367     0.0952 H1            1 RES     
      31 H1          -0.9207    -3.4360     0.1028 H1            1 RES     
      32 H1           1.1377    -3.3703     0.1038 H1            1 RES     
@<TRIPOS>BOND
       1        1        2 1
       2        1       18 1
       3        1       21 1
       4        2        3 1
       5        2       22 1
       6        3        4 1
       7        3       19 1
       8        4        5 1
       9        4       23 1
      10        5        6 1
      11        5       24 1
      12        6        7 1
      13        6       25 1
      14        7        8 1
      15        7       19 1
      16        8        9 1
      17        8       20 1
      18        9       10 1
      19        9       26 1
      20       10       11 1
      21       10       27 1
      22       11       12 1
      23       11       28 1
      24       12       13 1
      25       12       20 1
      26       13       14 1
      27       13       29 1
      28       14       15 1
      29       14       30 1
      30       15       16 1
      31       15       31 1
      32       16       17 1
      33       16       20 1
      34       17       18 1
      35       17       19 1
      36       18       32 1
@<TRIPOS>SUBSTRUCTURE
       1 RES             1 RESIDUE    0 **** ROOT      0
