@<TRIPOS>MOLECULE
RES
439 446 1 0 1
SMALL
NO_CHARGES
@<TRIPOS>CRYSIN
   24.6522    29.7544    28.0296    90.0000    90.0000    90.0000 1 1
@<TRIPOS>ATOM
       1 C0          17.3290    10.4004    25.8188 C0            1 RES     
       2 C1          16.4013     9.6686    24.8626 C1            1 RES     
       3 C1          16.7115     8.4236    24.5311 C1            1 RES     
       4 C1          18.1978     8.3765    24.8344 C1            1 RES     
       5 C1          19.3737     7.5075    25.0174 C1            1 RES     
       6 C1          20.6739     8.1747    25.2091 C1            1 RES     
       7 C1          20.7222     9.4800    24.6676 C1            1 RES     
       8 C1          19.6005    10.2396    24.5235 C1            1 RES     
       9 C1          18.4341     9.7191    24.9809 C1            1 RES     
      10 C1          22.0920    10.0103    24.4645 C1            1 RES     
      11 C1          22.8107     8.7423    24.6670 C1            1 RES     
      12 C0          22.1624     7.9504    25.7658 C0            1 RES     
      13 C1          23.7317     8.4157    23.7739 C1            1 RES     
      14 C1          23.8227     9.3519    22.7627 C1            1 RES     
      15 S2          22.5126    10.5791    22.7863 S2            1 RES     
      16 S2          15.6169     7.9388    23.0963 S2            1 RES     
      17 C1          14.9533     9.7047    22.8481 C1            1 RES     
      18 C1          15.3746    10.3927    24.0692 C1            1 RES     
      19 H3          19.2477     6.4418    25.1341 H3            1 RES     
      20 H3          19.6453    11.2279    24.2269 H3            1 RES     
      21 H3          24.2787     7.4852    23.7730 H3            1 RES     
      22 H3          15.3373    11.4577    24.1235 H3            1 RES     
      23 C0           9.6371    11.4074    22.4282 C0            1 RES     
      24 C1           9.6183    12.2551    21.1225 C1            1 RES     
      25 C1          10.8099    12.6756    20.7538 C1            1 RES     
      26 S2          10.8946    13.7316    19.3052 S2            1 RES     
      27 C1           9.0896    13.6548    19.2986 C1            1 RES     
      28 C1           8.5537    12.8219    20.2747 C1            1 RES     
      29 C1          11.8327    12.0595    21.5759 C1            1 RES     
      30 C1          11.2490    11.3265    22.5137 C1            1 RES     
      31 C1          12.2382    10.2072    22.8454 C1            1 RES     
      32 C1          13.5830    10.2079    22.1353 C1            1 RES     
      33 S2          13.6085    11.8288    21.2426 S2            1 RES     
      34 H3           7.4879    12.6971    20.4154 H3            1 RES     
      35 H3          11.8914     9.2229    23.0776 H3            1 RES     
      36 C0           8.4139    12.1072    23.2753 C0            1 RES     
      37 C0           7.7206    11.9949    24.7311 C0            1 RES     
      38 C0           6.8836    10.9056    25.6504 C0            1 RES     
      39 C0           7.1082     9.5182    26.5444 C0            1 RES     
      40 C0           7.5707     9.2150    28.1016 C0            1 RES     
      41 C0           9.0588     8.8771    28.6630 C0            1 RES     
      42 C0           9.2421     8.4372    30.2033 C0            1 RES     
      43 C0          10.7317     8.5294    30.8472 C0            1 RES     
      44 C0          11.0046     7.7861    32.2588 C0            1 RES     
      45 C0          12.0789     8.3337    33.4232 C0            1 RES     
      46 C0          12.5983     7.6506    34.9241 C0            1 RES     
      47 C0          13.9266     6.8610    35.5664 C0            1 RES     
      48 C0          13.7835     6.5705    37.1238 C0            1 RES     
      49 C0          13.0132     7.5619    38.0272 C0            1 RES     
      50 C0          13.2488     7.2998    39.5314 C0            1 RES     
      51 C0          12.4742     8.2509    40.4337 C0            1 RES     
      52 C0          14.5533     5.4828    35.0418 C0            1 RES     
      53 C0          16.1406     5.3804    35.0060 C0            1 RES     
      54 C0          16.7038     4.2892    34.0205 C0            1 RES     
      55 C0          18.2518     4.2627    33.8151 C0            1 RES     
      56 C0          18.8821     5.4751    33.0992 C0            1 RES     
      57 C0          18.5206     5.5912    31.6149 C0            1 RES     
      58 H4           8.6011    13.2062    23.1843 H4            1 RES     
      59 H4           7.5238    11.9363    22.6253 H4            1 RES     
      60 H4           8.3803    12.5540    25.3028 H4            1 RES     
      61 H4           6.9167    12.7618    24.5973 H4            1 RES     
      62 H4           6.3577    11.5578    26.3841 H4            1 RES     
      63 H4           6.1067    10.6029    24.9111 H4            1 RES     
      64 H4           7.5024     8.6977    25.9226 H4            1 RES     
      65 H4           6.0306     9.2513    26.6455 H4            1 RES     
      66 H4           7.1052     9.9890    28.7475 H4            1 RES     
      67 H4           7.0337     8.2701    28.3378 H4            1 RES     
      68 H4           9.6876     9.7380    28.5894 H4            1 RES     
      69 H4           9.5067     8.0813    28.0300 H4            1 RES     
      70 H4           8.8355     7.4080    30.2990 H4            1 RES     
      71 H4           8.6132     9.1048    30.8272 H4            1 RES     
      72 H4          10.9833     9.6029    30.9360 H4            1 RES     
      73 H4          11.4485     8.0937    30.1152 H4            1 RES     
      74 H4          10.0319     7.7013    32.7363 H4            1 RES     
      75 H4          11.1952     6.7640    31.9044 H4            1 RES     
      76 H4          12.9247     8.8025    32.9089 H4            1 RES     
      77 H4          11.5349     9.2359    33.7492 H4            1 RES     
      78 H4          12.7094     8.5704    35.4753 H4            1 RES     
      79 H4          11.7828     7.1915    35.4663 H4            1 RES     
      80 H4          14.7165     7.6113    35.3737 H4            1 RES     
      81 H4          14.8093     6.4164    37.5153 H4            1 RES     
      82 H4          13.2529     5.6023    37.2793 H4            1 RES     
      83 H4          11.9285     7.4821    37.7993 H4            1 RES     
      84 H4          13.3529     8.5809    37.8472 H4            1 RES     
      85 H4          13.0229     6.2485    39.8106 H4            1 RES     
      86 H4          14.2930     7.5110    39.7661 H4            1 RES     
      87 H4          12.7961     8.0930    41.4879 H4            1 RES     
      88 H4          11.3863     8.0600    40.3572 H4            1 RES     
      89 H4          12.6973     9.3057    40.1631 H4            1 RES     
      90 H4          14.1132     4.5665    35.4923 H4            1 RES     
      91 H4          14.2272     5.3810    34.0684 H4            1 RES     
      92 H4          16.5297     5.1568    36.0158 H4            1 RES     
      93 H4          16.5531     6.3575    34.6832 H4            1 RES     
      94 H4          16.3997     3.2940    34.4032 H4            1 RES     
      95 H4          16.2676     4.3865    33.0131 H4            1 RES     
      96 H4          18.7443     4.1482    34.8019 H4            1 RES     
      97 H4          18.5196     3.3726    33.2007 H4            1 RES     
      98 H4          18.6291     6.4064    33.6387 H4            1 RES     
      99 H4          19.9868     5.3623    33.1294 H4            1 RES     
     100 H4          18.8912     4.7288    31.0287 H4            1 RES     
     101 H4          17.4317     5.6853    31.4490 H4            1 RES     
     102 H4          19.0138     6.4956    31.2193 H4            1 RES     
     103 C0           9.2664     9.9580    22.3973 C0            1 RES     
     104 C0           9.2137     9.3818    23.8634 C0            1 RES     
     105 C0          10.1711     9.6549    25.1654 C0            1 RES     
     106 C0          10.2161    10.8406    26.2953 C0            1 RES     
     107 C0           9.5448    11.8626    27.3948 C0            1 RES     
     108 C0          10.3863    12.3829    28.5766 C0            1 RES     
     109 C0           9.5760    13.4164    29.4534 C0            1 RES     
     110 C0          10.4560    14.0933    30.5443 C0            1 RES     
     111 C0          10.3714    15.6356    30.7593 C0            1 RES     
     112 C0          10.5465    16.3502    29.4033 C0            1 RES     
     113 C0          10.9391    17.8478    29.3220 C0            1 RES     
     114 C0          12.1925    18.0767    28.4194 C0            1 RES     
     115 C0          12.2158    19.4680    27.7324 C0            1 RES     
     116 C0          11.2680    20.1978    26.8021 C0            1 RES     
     117 C0          12.1100    21.4226    26.2975 C0            1 RES     
     118 C0          11.4418    22.2702    25.2449 C0            1 RES     
     119 C0          13.5901    17.8870    29.1863 C0            1 RES     
     120 C0          14.7380    18.3470    28.2387 C0            1 RES     
     121 C0          16.1768    18.7857    28.4389 C0            1 RES     
     122 C0          16.6588    19.3904    27.0144 C0            1 RES     
     123 C0          16.6378    18.5205    25.7094 C0            1 RES     
     124 C0          18.0092    18.1997    25.0960 C0            1 RES     
     125 H4           9.9698     9.3963    21.7432 H4            1 RES     
     126 H4           8.2764     9.8132    21.9019 H4            1 RES     
     127 H4           9.2453     8.2901    23.6695 H4            1 RES     
     128 H4           8.1808     9.5401    24.1418 H4            1 RES     
     129 H4           9.9404     8.7265    25.7485 H4            1 RES     
     130 H4          11.2157     9.4713    24.9369 H4            1 RES     
     131 H4          10.9220    10.3233    26.9732 H4            1 RES     
     132 H4           9.2022    10.5502    26.2365 H4            1 RES     
     133 H4           9.1831    12.7873    26.9794 H4            1 RES     
     134 H4           8.6490    11.4647    27.9178 H4            1 RES     
     135 H4          11.2552    12.8932    28.1299 H4            1 RES     
     136 H4          10.7371    11.5501    29.2194 H4            1 RES     
     137 H4           8.6668    12.9766    29.9184 H4            1 RES     
     138 H4           9.1949    14.1752    28.7611 H4            1 RES     
     139 H4          11.4563    14.0422    30.1691 H4            1 RES     
     140 H4          10.4507    13.5029    31.4864 H4            1 RES     
     141 H4           9.4405    15.9537    31.2684 H4            1 RES     
     142 H4          11.2370    15.9004    31.4108 H4            1 RES     
     143 H4          11.3099    15.7939    28.8482 H4            1 RES     
     144 H4           9.5914    16.2314    28.8544 H4            1 RES     
     145 H4          10.0953    18.3208    28.7739 H4            1 RES     
     146 H4          11.0018    18.3616    30.3021 H4            1 RES     
     147 H4          12.1458    17.3689    27.5681 H4            1 RES     
     148 H4          12.9520    19.2621    26.9268 H4            1 RES     
     149 H4          12.5131    20.1963    28.5227 H4            1 RES     
     150 H4          10.3568    20.5232    27.3381 H4            1 RES     
     151 H4          10.9972    19.5397    25.9451 H4            1 RES     
     152 H4          12.3823    22.0690    27.1629 H4            1 RES     
     153 H4          13.0711    21.0797    25.8383 H4            1 RES     
     154 H4          12.1407    23.0941    24.9729 H4            1 RES     
     155 H4          10.5052    22.6995    25.6446 H4            1 RES     
     156 H4          11.2506    21.6582    24.3398 H4            1 RES     
     157 H4          13.6091    18.5313    30.0888 H4            1 RES     
     158 H4          13.7274    16.8394    29.5177 H4            1 RES     
     159 H4          14.4883    19.3799    28.0564 H4            1 RES     
     160 H4          14.6682    17.6746    27.3675 H4            1 RES     
     161 H4          16.2065    19.5884    29.2072 H4            1 RES     
     162 H4          16.7754    18.0347    28.9575 H4            1 RES     
     163 H4          15.9561    20.2229    26.8074 H4            1 RES     
     164 H4          17.6192    19.9270    27.0106 H4            1 RES     
     165 H4          16.0261    17.6071    25.7846 H4            1 RES     
     166 H4          16.1637    19.1458    24.9232 H4            1 RES     
     167 H4          18.6087    19.1206    24.9510 H4            1 RES     
     168 H4          18.6006    17.5172    25.6980 H4            1 RES     
     169 H4          17.8740    17.7213    24.1029 H4            1 RES     
     170 C0          16.1798    11.0504    26.7655 C0            1 RES     
     171 C0          16.1855    11.2467    28.3441 C0            1 RES     
     172 C0          16.8180    12.3072    29.3413 C0            1 RES     
     173 C0          18.2654    12.2540    29.8322 C0            1 RES     
     174 C0          19.6456    12.9115    29.4581 C0            1 RES     
     175 C0          20.5885    12.5256    28.2368 C0            1 RES     
     176 C0          20.7637    13.4301    26.9343 C0            1 RES     
     177 C0          20.0501    12.9968    25.6650 C0            1 RES     
     178 C0          19.5122    13.9139    24.5082 C0            1 RES     
     179 C0          18.0086    14.2422    24.6248 C0            1 RES     
     180 C0          17.3163    14.7431    23.3341 C0            1 RES     
     181 C0          15.8165    15.1943    23.5073 C0            1 RES     
     182 C0          15.2910    15.8269    22.1923 C0            1 RES     
     183 C0          15.7990    17.2422    21.9569 C0            1 RES     
     184 C0          15.0320    17.8716    20.7862 C0            1 RES     
     185 C0          15.3837    19.3405    20.6374 C0            1 RES     
     186 C0          14.8585    14.0531    23.9418 C0            1 RES     
     187 C0          13.3981    14.5241    24.1547 C0            1 RES     
     188 C0          12.4750    13.4555    24.7157 C0            1 RES     
     189 C0          11.0040    13.7976    24.4286 C0            1 RES     
     190 C0          10.4820    15.1531    24.8994 C0            1 RES     
     191 C0          10.7217    15.3796    26.3615 C0            1 RES     
     192 H4          15.7478    11.9401    26.2851 H4            1 RES     
     193 H4          15.3349    10.2987    26.7530 H4            1 RES     
     194 H4          15.1312    11.3149    28.4761 H4            1 RES     
     195 H4          16.3149    10.2983    28.8495 H4            1 RES     
     196 H4          16.4419    13.3158    29.3657 H4            1 RES     
     197 H4          16.3156    11.9669    30.2639 H4            1 RES     
     198 H4          18.3495    11.1991    29.8646 H4            1 RES     
     199 H4          18.1690    12.6245    30.8853 H4            1 RES     
     200 H4          19.6661    13.9805    29.7294 H4            1 RES     
     201 H4          20.2499    12.5659    30.3268 H4            1 RES     
     202 H4          20.6110    11.4487    28.0238 H4            1 RES     
     203 H4          21.5882    12.6012    28.7097 H4            1 RES     
     204 H4          20.7930    14.5120    27.0007 H4            1 RES     
     205 H4          21.8404    13.2955    26.6877 H4            1 RES     
     206 H4          20.8824    12.4524    25.1616 H4            1 RES     
     207 H4          19.2432    12.3234    25.9646 H4            1 RES     
     208 H4          20.1483    14.8058    24.3250 H4            1 RES     
     209 H4          19.5616    13.3048    23.5816 H4            1 RES     
     210 H4          17.4659    13.3300    24.9547 H4            1 RES     
     211 H4          17.9559    15.0454    25.3391 H4            1 RES     
     212 H4          17.9060    15.6076    22.9773 H4            1 RES     
     213 H4          17.3653    13.9441    22.5622 H4            1 RES     
     214 H4          15.7564    15.9547    24.3080 H4            1 RES     
     215 H4          14.2121    15.9963    22.2570 H4            1 RES     
     216 H4          15.4660    15.1517    21.3259 H4            1 RES     
     217 H4          16.8905    17.2541    21.7694 H4            1 RES     
     218 H4          15.5758    17.8366    22.8712 H4            1 RES     
     219 H4          15.2580    17.3194    19.8489 H4            1 RES     
     220 H4          13.9344    17.8118    20.9727 H4            1 RES     
     221 H4          14.8036    19.7709    19.7953 H4            1 RES     
     222 H4          16.4686    19.4539    20.4402 H4            1 RES     
     223 H4          15.1149    19.8855    21.5690 H4            1 RES     
     224 H4          14.8574    13.2810    23.1566 H4            1 RES     
     225 H4          15.2139    13.6149    24.8827 H4            1 RES     
     226 H4          12.9555    14.7704    23.1762 H4            1 RES     
     227 H4          13.3589    15.4123    24.8218 H4            1 RES     
     228 H4          12.6972    12.4936    24.2268 H4            1 RES     
     229 H4          12.6328    13.2910    25.7961 H4            1 RES     
     230 H4          10.8335    13.7998    23.3375 H4            1 RES     
     231 H4          10.4166    12.9913    24.8753 H4            1 RES     
     232 H4          10.9657    15.9762    24.3360 H4            1 RES     
     233 H4           9.3863    15.1908    24.7034 H4            1 RES     
     234 H4          10.2636    14.5814    26.9364 H4            1 RES     
     235 H4          11.8060    15.3856    26.5829 H4            1 RES     
     236 H4          10.2577    16.3407    26.6517 H4            1 RES     
     237 C0          18.2758     9.9970    27.0758 C0            1 RES     
     238 C0          18.1785     8.7796    28.0803 C0            1 RES     
     239 C0          19.3365     8.6458    29.1523 C0            1 RES     
     240 C0          19.7904     9.4504    30.4311 C0            1 RES     
     241 C0          19.1101     9.4699    31.8322 C0            1 RES     
     242 C0          17.5978     9.6893    32.0489 C0            1 RES     
     243 C0          16.8213     8.4126    31.6906 C0            1 RES     
     244 C0          15.3402     8.4047    32.0799 C0            1 RES     
     245 C0          14.7543     6.9650    32.3203 C0            1 RES     
     246 C0          13.8637     6.0622    31.3935 C0            1 RES     
     247 C0          13.2706     4.6622    32.0079 C0            1 RES     
     248 C0          11.8577     4.2738    32.7802 C0            1 RES     
     249 C0          11.8936     2.8351    33.3740 C0            1 RES     
     250 C0          12.5873     1.7661    32.5398 C0            1 RES     
     251 C0          12.4120     0.3944    33.1997 C0            1 RES     
     252 C0          13.2027    -0.6644    32.4466 C0            1 RES     
     253 C0          11.2707     5.1069    33.9738 C0            1 RES     
     254 C0           9.7015     5.3284    34.1095 C0            1 RES     
     255 C0           9.3327     6.4974    35.1111 C0            1 RES     
     256 C0           7.8895     7.0653    35.1260 C0            1 RES     
     257 C0           7.5224     7.9889    33.9307 C0            1 RES     
     258 C0           8.2338     9.3635    33.9302 C0            1 RES     
     259 H4          18.5659    10.9185    27.5978 H4            1 RES     
     260 H4          18.5659    10.9185    27.5978 H4            1 RES     
     261 H4          17.2152     8.5863    28.5470 H4            1 RES     
     262 H4          18.2922     7.9019    27.4225 H4            1 RES     
     263 H4          19.3797     7.5855    29.4302 H4            1 RES     
     264 H4          20.1578     8.8805    28.5272 H4            1 RES     
     265 H4          20.1316    10.4477    30.1569 H4            1 RES     
     266 H4          20.7781     9.0447    30.6956 H4            1 RES     
     267 H4          19.3429     8.5146    32.3145 H4            1 RES     
     268 H4          19.6533    10.2488    32.4235 H4            1 RES     
     269 H4          17.2038    10.5930    31.5902 H4            1 RES     
     270 H4          17.4705     9.8542    33.1479 H4            1 RES     
     271 H4          17.2912     7.6798    32.3562 H4            1 RES     
     272 H4          16.9498     8.1233    30.6411 H4            1 RES     
     273 H4          14.7014     9.0788    31.4744 H4            1 RES     
     274 H4          15.3717     8.8600    33.1025 H4            1 RES     
     275 H4          15.5840     6.3679    32.6901 H4            1 RES     
     276 H4          14.1163     7.1404    33.1271 H4            1 RES     
     277 H4          13.0745     6.6593    30.9213 H4            1 RES     
     278 H4          14.5634     5.7883    30.5786 H4            1 RES     
     279 H4          13.1567     4.0558    31.0882 H4            1 RES     
     280 H4          14.1132     4.1480    32.4937 H4            1 RES     
     281 H4          11.1039     4.3479    31.9685 H4            1 RES     
     282 H4          10.8479     2.5283    33.6023 H4            1 RES     
     283 H4          12.4536     2.8506    34.3415 H4            1 RES     
     284 H4          13.6745     1.9936    32.4918 H4            1 RES     
     285 H4          12.1636     1.7487    31.5167 H4            1 RES     
     286 H4          12.7658     0.4137    34.2560 H4            1 RES     
     287 H4          11.3325     0.1288    33.1948 H4            1 RES     
     288 H4          13.0127    -1.6603    32.8969 H4            1 RES     
     289 H4          14.2896    -0.4411    32.5151 H4            1 RES     
     290 H4          12.8977    -0.6812    31.3796 H4            1 RES     
     291 H4          11.7317     4.8810    34.9616 H4            1 RES     
     292 H4          11.6376     6.0103    33.7019 H4            1 RES     
     293 H4           9.1933     4.3971    34.4419 H4            1 RES     
     294 H4           9.2996     5.5892    33.1125 H4            1 RES     
     295 H4           9.5880     6.1498    36.1367 H4            1 RES     
     296 H4           9.9054     7.3990    34.9031 H4            1 RES     
     297 H4           7.1698     6.2281    35.2100 H4            1 RES     
     298 H4           7.7714     7.6999    36.0366 H4            1 RES     
     299 H4           7.6946     7.4570    32.9737 H4            1 RES     
     300 H4           6.4392     8.2267    33.9984 H4            1 RES     
     301 H4           7.9885     9.9447    34.8420 H4            1 RES     
     302 H4           9.3284     9.3059    33.8911 H4            1 RES     
     303 H4           7.9109     9.9544    33.0454 H4            1 RES     
     304 C0          22.8424     6.5416    26.1414 C0            1 RES     
     305 C0          22.5328     5.8156    27.5521 C0            1 RES     
     306 C0          23.3341     6.1954    28.8988 C0            1 RES     
     307 C0          22.5900     5.7886    30.2384 C0            1 RES     
     308 C0          23.0532     6.2244    31.7174 C0            1 RES     
     309 C0          22.2025     7.3321    32.4742 C0            1 RES     
     310 C0          22.1683     7.2512    34.0643 C0            1 RES     
     311 C0          21.1395     8.2589    34.6986 C0            1 RES     
     312 C0          20.7553     8.1782    36.2175 C0            1 RES     
     313 C0          20.0308     6.8658    36.6056 C0            1 RES     
     314 C0          19.3408     6.8086    38.0066 C0            1 RES     
     315 C0          17.8146     7.1963    38.0777 C0            1 RES     
     316 C0          17.1648     6.6488    39.3947 C0            1 RES     
     317 C0          17.2608     5.1039    39.6093 C0            1 RES     
     318 C0          16.2678     4.5819    40.6741 C0            1 RES     
     319 C0          16.3884     3.0662    40.8907 C0            1 RES     
     320 C0          17.5347     8.7266    37.8043 C0            1 RES     
     321 C0          16.0477     9.2399    37.7601 C0            1 RES     
     322 C0          15.9488    10.6990    37.2073 C0            1 RES     
     323 C0          14.5962    11.4866    37.3073 C0            1 RES     
     324 C0          13.3991    11.1688    36.3843 C0            1 RES     
     325 C0          13.6689    11.3284    34.8850 C0            1 RES     
     326 H4          23.9478     6.6673    26.1174 H4            1 RES     
     327 H4          22.5777     5.8601    25.3084 H4            1 RES     
     328 H4          21.4409     5.9005    27.7166 H4            1 RES     
     329 H4          22.7541     4.7370    27.4218 H4            1 RES     
     330 H4          24.3651     5.7763    28.8678 H4            1 RES     
     331 H4          23.5335     7.2186    28.9524 H4            1 RES     
     332 H4          21.5205     6.0641    30.1522 H4            1 RES     
     333 H4          22.6417     4.6818    30.2130 H4            1 RES     
     334 H4          22.8171     5.3244    32.3212 H4            1 RES     
     335 H4          24.1521     6.3640    31.8254 H4            1 RES     
     336 H4          21.1567     7.1724    32.1665 H4            1 RES     
     337 H4          22.4929     8.3515    32.1543 H4            1 RES     
     338 H4          23.1763     7.4327    34.4967 H4            1 RES     
     339 H4          21.8513     6.2275    34.3473 H4            1 RES     
     340 H4          20.1766     8.1313    34.1890 H4            1 RES     
     341 H4          21.5042     9.2893    34.4967 H4            1 RES     
     342 H4          21.6375     8.3339    36.8760 H4            1 RES     
     343 H4          20.0664     9.0240    36.4063 H4            1 RES     
     344 H4          19.2683     6.5795    35.8557 H4            1 RES     
     345 H4          20.8267     6.0903    36.5842 H4            1 RES     
     346 H4          19.3629     5.7242    38.2293 H4            1 RES     
     347 H4          19.9458     7.3004    38.7987 H4            1 RES     
     348 H4          17.3110     6.6534    37.2673 H4            1 RES     
     349 H4          16.1107     6.8532    39.2842 H4            1 RES     
     350 H4          17.5330     7.1775    40.2993 H4            1 RES     
     351 H4          18.2909     4.8278    39.9204 H4            1 RES     
     352 H4          17.0183     4.5822    38.6576 H4            1 RES     
     353 H4          16.4385     5.0891    41.6470 H4            1 RES     
     354 H4          15.2293     4.7958    40.3384 H4            1 RES     
     355 H4          15.6288     2.7276    41.6302 H4            1 RES     
     356 H4          17.3931     2.8033    41.2847 H4            1 RES     
     357 H4          16.2145     2.5118    39.9435 H4            1 RES     
     358 H4          18.0843     9.3366    38.5518 H4            1 RES     
     359 H4          17.9409     8.9317    36.7981 H4            1 RES     
     360 H4          15.6196     9.1978    38.7838 H4            1 RES     
     361 H4          15.4663     8.6044    37.0935 H4            1 RES     
     362 H4          16.6532    11.2925    37.8242 H4            1 RES     
     363 H4          16.3108    10.7261    36.1572 H4            1 RES     
     364 H4          14.2348    11.4326    38.3563 H4            1 RES     
     365 H4          14.8316    12.5500    37.0897 H4            1 RES     
     366 H4          13.0118    10.1883    36.6100 H4            1 RES     
     367 H4          12.5664    11.8635    36.6354 H4            1 RES     
     368 H4          13.9655    12.3727    34.6554 H4            1 RES     
     369 H4          14.4532    10.6278    34.5379 H4            1 RES     
     370 H4          12.7375    11.1209    34.3134 H4            1 RES     
     371 C0          22.1894     8.8153    27.0825 C0            1 RES     
     372 C0          23.4661     9.3688    27.7299 C0            1 RES     
     373 C0          23.1557     9.6361    29.2558 C0            1 RES     
     374 C0          24.4133     9.7947    30.1456 C0            1 RES     
     375 C0          24.6671    11.2492    30.5442 C0            1 RES     
     376 C0          24.7701    12.1339    29.3127 C0            1 RES     
     377 C0          24.5956    13.6212    29.6150 C0            1 RES     
     378 C0          24.3691    14.3295    28.2724 C0            1 RES     
     379 C0          23.6405    15.6771    28.3310 C0            1 RES     
     380 C0          22.2322    15.5980    29.0061 C0            1 RES     
     381 C0          21.2989    16.6713    28.4292 C0            1 RES     
     382 C0          19.7393    16.7155    28.7465 C0            1 RES     
     383 C0          19.4134    18.2008    28.4575 C0            1 RES     
     384 C0          19.3167    19.0812    29.7257 C0            1 RES     
     385 C0          19.0396    20.5591    29.3790 C0            1 RES     
     386 C0          18.8873    21.4403    30.6069 C0            1 RES     
     387 C0          18.7595    15.7287    27.8946 C0            1 RES     
     388 C0          17.1880    15.6340    28.1592 C0            1 RES     
     389 C0          16.3170    14.5709    27.3923 C0            1 RES     
     390 C0          14.7666    14.4466    27.7183 C0            1 RES     
     391 C0          13.9894    14.1261    29.0578 C0            1 RES     
     392 C0          13.5963    12.6932    29.5254 C0            1 RES     
     393 H4          21.5186     9.6972    27.0289 H4            1 RES     
     394 H4          21.7656     8.1133    27.7882 H4            1 RES     
     395 H4          23.8177    10.2725    27.1908 H4            1 RES     
     396 H4          24.2717     8.6222    27.6236 H4            1 RES     
     397 H4          22.4002    10.4300    29.4267 H4            1 RES     
     398 H4          22.6209     8.7823    29.6871 H4            1 RES     
     399 H4          25.2882     9.3049    29.6696 H4            1 RES     
     400 H4          24.2479     9.2624    31.1064 H4            1 RES     
     401 H4          23.7893    11.5663    31.1529 H4            1 RES     
     402 H4          25.5750    11.3321    31.1790 H4            1 RES     
     403 H4          23.8953    11.8930    28.6924 H4            1 RES     
     404 H4          25.6828    11.9054    28.7236 H4            1 RES     
     405 H4          25.4503    14.0500    30.1802 H4            1 RES     
     406 H4          23.6778    13.7136    30.2319 H4            1 RES     
     407 H4          23.7082    13.7049    27.6442 H4            1 RES     
     408 H4          25.3297    14.3938    27.7163 H4            1 RES     
     409 H4          24.2576    16.4746    28.7894 H4            1 RES     
     410 H4          23.5119    15.9265    27.2525 H4            1 RES     
     411 H4          21.8019    14.6457    28.8165 H4            1 RES     
     412 H4          22.3159    15.6601    30.1110 H4            1 RES     
     413 H4          21.7896    17.5996    28.7989 H4            1 RES     
     414 H4          21.3835    16.6832    27.3178 H4            1 RES     
     415 H4          19.5746    16.5077    29.8250 H4            1 RES     
     416 H4          18.5271    18.2007    27.8787 H4            1 RES     
     417 H4          20.1271    18.6672    27.7368 H4            1 RES     
     418 H4          20.2707    19.0231    30.2892 H4            1 RES     
     419 H4          18.5031    18.6902    30.3753 H4            1 RES     
     420 H4          19.8514    20.9544    28.7322 H4            1 RES     
     421 H4          18.0925    20.6723    28.8489 H4            1 RES     
     422 H4          18.6450    22.4746    30.2754 H4            1 RES     
     423 H4          19.8264    21.4566    31.1924 H4            1 RES     
     424 H4          18.0479    21.0741    31.2369 H4            1 RES     
     425 H4          19.0172    14.7164    28.0169 H4            1 RES     
     426 H4          18.9854    15.9086    26.8532 H4            1 RES     
     427 H4          16.7379    16.5171    27.7619 H4            1 RES     
     428 H4          17.0382    15.4891    29.2485 H4            1 RES     
     429 H4          16.2603    14.8918    26.3567 H4            1 RES     
     430 H4          16.8439    13.6125    27.3364 H4            1 RES     
     431 H4          14.3889    15.4495    27.4435 H4            1 RES     
     432 H4          14.3473    13.7461    26.9784 H4            1 RES     
     433 H4          14.3643    14.7131    29.9143 H4            1 RES     
     434 H4          12.9950    14.5057    28.7925 H4            1 RES     
     435 H4          13.1995    12.0770    28.6869 H4            1 RES     
     436 H4          14.3405    12.1761    30.1148 H4            1 RES     
     437 H4          12.8385    12.6457    30.3151 H4            1 RES     
     438 H5          24.4643     9.2288    21.9007 H5            1 RES     
     439 H5           8.4800    14.2441    18.6174 H5            1 RES     
@<TRIPOS>BOND
       1        1        2 1
       2        1        9 1
       3        1      170 1
       4        1      237 1
       5        2        3 1
       6        2       18 1
       7        3        4 1
       8        3       16 1
       9        4        5 1
      10        4        9 1
      11        5        6 1
      12        5       19 1
      13        6        7 1
      14        6       12 1
      15        7        8 1
      16        7       10 1
      17        8        9 1
      18        8       20 1
      19       10       11 1
      20       10       15 1
      21       11       12 1
      22       11       13 1
      23       12      304 1
      24       12      371 1
      25       13       14 1
      26       13       21 1
      27       14       15 1
      28       14      438 1
      29       16       17 1
      30       17       18 1
      31       17       32 1
      32       18       22 1
      33       23       24 1
      34       23       30 1
      35       23       36 1
      36       23      103 1
      37       24       25 1
      38       24       28 1
      39       25       26 1
      40       25       29 1
      41       26       27 1
      42       27       28 1
      43       27      439 1
      44       28       34 1
      45       29       30 1
      46       29       33 1
      47       30       31 1
      48       31       32 1
      49       31       35 1
      50       32       33 1
      51       36       37 1
      52       36       58 1
      53       36       59 1
      54       37       38 1
      55       37       60 1
      56       37       61 1
      57       38       39 1
      58       38       62 1
      59       38       63 1
      60       39       40 1
      61       39       64 1
      62       39       65 1
      63       40       41 1
      64       40       66 1
      65       40       67 1
      66       41       42 1
      67       41       68 1
      68       41       69 1
      69       42       43 1
      70       42       70 1
      71       42       71 1
      72       43       44 1
      73       43       72 1
      74       43       73 1
      75       44       45 1
      76       44       74 1
      77       44       75 1
      78       45       46 1
      79       45       76 1
      80       45       77 1
      81       46       47 1
      82       46       78 1
      83       46       79 1
      84       47       48 1
      85       47       52 1
      86       47       80 1
      87       48       49 1
      88       48       81 1
      89       48       82 1
      90       49       50 1
      91       49       83 1
      92       49       84 1
      93       50       51 1
      94       50       85 1
      95       50       86 1
      96       51       87 1
      97       51       88 1
      98       51       89 1
      99       52       53 1
     100       52       90 1
     101       52       91 1
     102       53       54 1
     103       53       92 1
     104       53       93 1
     105       54       55 1
     106       54       94 1
     107       54       95 1
     108       55       56 1
     109       55       96 1
     110       55       97 1
     111       56       57 1
     112       56       98 1
     113       56       99 1
     114       57      100 1
     115       57      101 1
     116       57      102 1
     117      103      104 1
     118      103      125 1
     119      103      126 1
     120      104      105 1
     121      104      127 1
     122      104      128 1
     123      105      106 1
     124      105      129 1
     125      105      130 1
     126      106      107 1
     127      106      131 1
     128      106      132 1
     129      107      108 1
     130      107      133 1
     131      107      134 1
     132      108      109 1
     133      108      135 1
     134      108      136 1
     135      109      110 1
     136      109      137 1
     137      109      138 1
     138      110      111 1
     139      110      139 1
     140      110      140 1
     141      111      112 1
     142      111      141 1
     143      111      142 1
     144      112      113 1
     145      112      143 1
     146      112      144 1
     147      113      114 1
     148      113      145 1
     149      113      146 1
     150      114      115 1
     151      114      119 1
     152      114      147 1
     153      115      116 1
     154      115      148 1
     155      115      149 1
     156      116      117 1
     157      116      150 1
     158      116      151 1
     159      117      118 1
     160      117      152 1
     161      117      153 1
     162      118      154 1
     163      118      155 1
     164      118      156 1
     165      119      120 1
     166      119      157 1
     167      119      158 1
     168      120      121 1
     169      120      159 1
     170      120      160 1
     171      121      122 1
     172      121      161 1
     173      121      162 1
     174      122      123 1
     175      122      163 1
     176      122      164 1
     177      123      124 1
     178      123      165 1
     179      123      166 1
     180      124      167 1
     181      124      168 1
     182      124      169 1
     183      170      171 1
     184      170      192 1
     185      170      193 1
     186      171      172 1
     187      171      194 1
     188      171      195 1
     189      172      173 1
     190      172      196 1
     191      172      197 1
     192      173      174 1
     193      173      198 1
     194      173      199 1
     195      174      175 1
     196      174      200 1
     197      174      201 1
     198      175      176 1
     199      175      202 1
     200      175      203 1
     201      176      177 1
     202      176      204 1
     203      176      205 1
     204      177      178 1
     205      177      206 1
     206      177      207 1
     207      178      179 1
     208      178      208 1
     209      178      209 1
     210      179      180 1
     211      179      210 1
     212      179      211 1
     213      180      181 1
     214      180      212 1
     215      180      213 1
     216      181      182 1
     217      181      186 1
     218      181      214 1
     219      182      183 1
     220      182      215 1
     221      182      216 1
     222      183      184 1
     223      183      217 1
     224      183      218 1
     225      184      185 1
     226      184      219 1
     227      184      220 1
     228      185      221 1
     229      185      222 1
     230      185      223 1
     231      186      187 1
     232      186      224 1
     233      186      225 1
     234      187      188 1
     235      187      226 1
     236      187      227 1
     237      188      189 1
     238      188      228 1
     239      188      229 1
     240      189      190 1
     241      189      230 1
     242      189      231 1
     243      190      191 1
     244      190      232 1
     245      190      233 1
     246      191      234 1
     247      191      235 1
     248      191      236 1
     249      237      238 1
     250      237      259 1
     251      237      260 1
     252      238      239 1
     253      238      261 1
     254      238      262 1
     255      239      240 1
     256      239      263 1
     257      239      264 1
     258      240      241 1
     259      240      265 1
     260      240      266 1
     261      241      242 1
     262      241      267 1
     263      241      268 1
     264      242      243 1
     265      242      269 1
     266      242      270 1
     267      243      244 1
     268      243      271 1
     269      243      272 1
     270      244      245 1
     271      244      273 1
     272      244      274 1
     273      245      246 1
     274      245      275 1
     275      245      276 1
     276      246      247 1
     277      246      277 1
     278      246      278 1
     279      247      248 1
     280      247      279 1
     281      247      280 1
     282      248      249 1
     283      248      253 1
     284      248      281 1
     285      249      250 1
     286      249      282 1
     287      249      283 1
     288      250      251 1
     289      250      284 1
     290      250      285 1
     291      251      252 1
     292      251      286 1
     293      251      287 1
     294      252      288 1
     295      252      289 1
     296      252      290 1
     297      253      254 1
     298      253      291 1
     299      253      292 1
     300      254      255 1
     301      254      293 1
     302      254      294 1
     303      255      256 1
     304      255      295 1
     305      255      296 1
     306      256      257 1
     307      256      297 1
     308      256      298 1
     309      257      258 1
     310      257      299 1
     311      257      300 1
     312      258      301 1
     313      258      302 1
     314      258      303 1
     315      304      305 1
     316      304      326 1
     317      304      327 1
     318      305      306 1
     319      305      328 1
     320      305      329 1
     321      306      307 1
     322      306      330 1
     323      306      331 1
     324      307      308 1
     325      307      332 1
     326      307      333 1
     327      308      309 1
     328      308      334 1
     329      308      335 1
     330      309      310 1
     331      309      336 1
     332      309      337 1
     333      310      311 1
     334      310      338 1
     335      310      339 1
     336      311      312 1
     337      311      340 1
     338      311      341 1
     339      312      313 1
     340      312      342 1
     341      312      343 1
     342      313      314 1
     343      313      344 1
     344      313      345 1
     345      314      315 1
     346      314      346 1
     347      314      347 1
     348      315      316 1
     349      315      320 1
     350      315      348 1
     351      316      317 1
     352      316      349 1
     353      316      350 1
     354      317      318 1
     355      317      351 1
     356      317      352 1
     357      318      319 1
     358      318      353 1
     359      318      354 1
     360      319      355 1
     361      319      356 1
     362      319      357 1
     363      320      321 1
     364      320      358 1
     365      320      359 1
     366      321      322 1
     367      321      360 1
     368      321      361 1
     369      322      323 1
     370      322      362 1
     371      322      363 1
     372      323      324 1
     373      323      364 1
     374      323      365 1
     375      324      325 1
     376      324      366 1
     377      324      367 1
     378      325      368 1
     379      325      369 1
     380      325      370 1
     381      371      372 1
     382      371      393 1
     383      371      394 1
     384      372      373 1
     385      372      395 1
     386      372      396 1
     387      373      374 1
     388      373      397 1
     389      373      398 1
     390      374      375 1
     391      374      399 1
     392      374      400 1
     393      375      376 1
     394      375      401 1
     395      375      402 1
     396      376      377 1
     397      376      403 1
     398      376      404 1
     399      377      378 1
     400      377      405 1
     401      377      406 1
     402      378      379 1
     403      378      407 1
     404      378      408 1
     405      379      380 1
     406      379      409 1
     407      379      410 1
     408      380      381 1
     409      380      411 1
     410      380      412 1
     411      381      382 1
     412      381      413 1
     413      381      414 1
     414      382      383 1
     415      382      387 1
     416      382      415 1
     417      383      384 1
     418      383      416 1
     419      383      417 1
     420      384      385 1
     421      384      418 1
     422      384      419 1
     423      385      386 1
     424      385      420 1
     425      385      421 1
     426      386      422 1
     427      386      423 1
     428      386      424 1
     429      387      388 1
     430      387      425 1
     431      387      426 1
     432      388      389 1
     433      388      427 1
     434      388      428 1
     435      389      390 1
     436      389      429 1
     437      389      430 1
     438      390      391 1
     439      390      431 1
     440      390      432 1
     441      391      392 1
     442      391      433 1
     443      391      434 1
     444      392      435 1
     445      392      436 1
     446      392      437 1
@<TRIPOS>SUBSTRUCTURE
       1 RES             1 RESIDUE    0 **** ROOT      0
