@<TRIPOS>MOLECULE
Polymer
1206 1233 1 0 1
SMALL
NO_CHARGES
@<TRIPOS>CRYSIN
   67.4007    33.3952    31.0862    90.0000    90.0000    90.0000  1  1
@<TRIPOS>ATOM
       1 C            1.7192    -0.8554     0.8856 C             1 Polymer 
       2 C            2.8114    -0.0504     0.1860 C             1 Polymer 
       3 C            2.4113     1.1979    -0.2103 C             1 Polymer 
       4 C            0.9732     1.3596     0.1034 C             1 Polymer 
       5 C           -0.1445     2.1325    -0.4118 C             1 Polymer 
       6 C           -1.4742     1.6744    -0.0202 C             1 Polymer 
       7 C           -1.5584     0.7155     0.9325 C             1 Polymer 
       8 C           -0.5236     0.1822     1.5658 C             1 Polymer 
       9 C            0.7349     0.3442     1.0215 C             1 Polymer 
      10 C           -2.6934    -0.1228     0.7203 C             1 Polymer 
      11 C           -3.2175     0.2001    -0.4292 C             1 Polymer 
      12 C           -2.9044     1.7001    -0.6701 C             1 Polymer 
      13 C           -4.2321    -0.7947    -0.7503 C             1 Polymer 
      14 C           -4.3155    -1.8298     0.1446 C             1 Polymer 
      15 S           -3.2465    -1.6189     1.5295 S             1 Polymer 
      16 S            3.8044     2.0953    -0.6215 S             1 Polymer 
      17 C            4.9569     0.8429    -0.2170 C             1 Polymer 
      18 C            4.2068    -0.2555     0.1641 C             1 Polymer 
      19 H            0.0304     2.8260    -1.2223 H             1 Polymer 
      20 H           -0.7712    -0.6171     2.1337 H             1 Polymer 
      21 H           -4.9966    -0.6633    -1.4279 H             1 Polymer 
      22 H            4.6598    -1.1430     0.5581 H             1 Polymer 
      23 C            8.5037     2.3056     0.3143 C             1 Polymer 
      24 F            8.9793     3.5280     0.6296 F             1 Polymer 
      25 C            7.1107     2.1744     0.1052 C             1 Polymer 
      26 C            6.4745     0.9305    -0.0956 C             1 Polymer 
      27 C            7.3317    -0.1999    -0.0093 C             1 Polymer 
      28 N            6.8887    -1.4819    -0.0245 N             1 Polymer 
      29 S            8.2754    -2.3558     0.1383 S             1 Polymer 
      30 N            9.4525    -1.2189     0.1768 N             1 Polymer 
      31 C            8.7533    -0.0552     0.1030 C             1 Polymer 
      32 C            9.3923     1.1922     0.2293 C             1 Polymer 
      33 H            6.4891     3.0784     0.1551 H             1 Polymer 
      34 C           14.0074     2.5809     2.1640 C             1 Polymer 
      35 C           12.9739     2.0067     1.1795 C             1 Polymer 
      36 C           13.3209     0.7694     0.7135 C             1 Polymer 
      37 C           14.5575     0.3445     1.3220 C             1 Polymer 
      38 C           15.5941    -0.6063     1.0067 C             1 Polymer 
      39 C           16.8160    -0.4261     1.7489 C             1 Polymer 
      40 C           16.7954     0.4514     2.8045 C             1 Polymer 
      41 C           15.7597     1.1600     3.1970 C             1 Polymer 
      42 C           14.7035     1.2381     2.3852 C             1 Polymer 
      43 C           18.0473     0.9867     3.0591 C             1 Polymer 
      44 C           18.8334     0.6398     2.0329 C             1 Polymer 
      45 C           18.3177    -0.7002     1.4501 C             1 Polymer 
      46 C           20.0482     1.2360     2.1882 C             1 Polymer 
      47 C           20.1486     1.9523     3.3787 C             1 Polymer 
      48 S           18.7049     2.0103     4.2078 S             1 Polymer 
      49 S           12.0195     0.0097    -0.0004 S             1 Polymer 
      50 C           10.8985     1.2739     0.3584 C             1 Polymer 
      51 C           11.6140     2.3233     0.9633 C             1 Polymer 
      52 H           15.5393    -1.2067     0.1088 H             1 Polymer 
      53 H           15.9196     1.9100     3.8547 H             1 Polymer 
      54 H           20.8596     0.9916     1.6040 H             1 Polymer 
      55 H           11.1409     3.1962     1.3753 H             1 Polymer 
      56 C           22.5692     1.6127     3.6383 C             1 Polymer 
      57 F           22.6193     0.5659     2.8225 F             1 Polymer 
      58 C           23.7849     1.9630     4.0793 C             1 Polymer 
      59 C           23.9312     3.1398     4.7760 C             1 Polymer 
      60 C           22.8310     3.8484     5.2433 C             1 Polymer 
      61 N           22.8974     4.9985     5.9688 N             1 Polymer 
      62 S           21.3038     5.3970     6.1422 S             1 Polymer 
      63 N           20.5093     4.2246     5.2856 N             1 Polymer 
      64 C           21.5325     3.4404     4.8530 C             1 Polymer 
      65 C           21.4138     2.3528     3.9662 C             1 Polymer 
      66 H           24.6453     1.4036     3.7131 H             1 Polymer 
      67 C            2.4714    -1.9564     1.7558 C             1 Polymer 
      68 C            3.0530    -3.2754     1.0294 C             1 Polymer 
      69 C            2.0395    -4.4070     0.5584 C             1 Polymer 
      70 C            1.4990    -4.6061    -0.9305 C             1 Polymer 
      71 C            0.7463    -3.6873    -2.0226 C             1 Polymer 
      72 C            1.6152    -2.5852    -2.7737 C             1 Polymer 
      73 C            1.3813    -2.0787    -4.2647 C             1 Polymer 
      74 C            2.6104    -1.2372    -4.7446 C             1 Polymer 
      75 C            3.1733    -1.4058    -6.2048 C             1 Polymer 
      76 C            3.6433    -2.8494    -6.5346 C             1 Polymer 
      77 C            4.5645    -3.1002    -7.7807 C             1 Polymer 
      78 C            6.0852    -3.3811    -7.4608 C             1 Polymer 
      79 C            6.8484    -4.1145    -8.6039 C             1 Polymer 
      80 C            6.3676    -5.5721    -8.7974 C             1 Polymer 
      81 C            7.3059    -6.3670    -9.7156 C             1 Polymer 
      82 C            6.8639    -7.8265    -9.8149 C             1 Polymer 
      83 C            6.8410    -2.1133    -6.9569 C             1 Polymer 
      84 C            8.3040    -2.3718    -6.4642 C             1 Polymer 
      85 C            8.9622    -1.1178    -5.8478 C             1 Polymer 
      86 C           10.4985    -1.2379    -5.6699 C             1 Polymer 
      87 C           11.0096    -2.2790    -4.6557 C             1 Polymer 
      88 C           10.7799    -1.8741    -3.1989 C             1 Polymer 
      89 H            3.2431    -1.4425     2.3092 H             1 Polymer 
      90 H            1.8619    -2.3712     2.5206 H             1 Polymer 
      91 H            3.7931    -3.0932     0.2277 H             1 Polymer 
      92 H            3.6095    -3.7697     1.8497 H             1 Polymer 
      93 H            2.5848    -5.3645     0.7279 H             1 Polymer 
      94 H            1.2276    -4.4919     1.2853 H             1 Polymer 
      95 H            2.3804    -4.9599    -1.4537 H             1 Polymer 
      96 H            0.8244    -5.4893    -0.8089 H             1 Polymer 
      97 H            0.5390    -4.4490    -2.7215 H             1 Polymer 
      98 H           -0.2567    -3.3128    -1.7382 H             1 Polymer 
      99 H            2.5541    -3.0678    -2.7506 H             1 Polymer 
     100 H            1.7747    -1.6634    -2.2026 H             1 Polymer 
     101 H            0.4448    -1.4916    -4.3584 H             1 Polymer 
     102 H            1.2647    -2.8645    -5.0175 H             1 Polymer 
     103 H            3.4728    -1.4863    -4.1040 H             1 Polymer 
     104 H            2.3820    -0.1712    -4.5370 H             1 Polymer 
     105 H            2.4317    -1.0796    -6.9668 H             1 Polymer 
     106 H            4.0514    -0.7328    -6.2697 H             1 Polymer 
     107 H            4.1530    -3.2950    -5.6688 H             1 Polymer 
     108 H            2.6993    -3.4098    -6.7017 H             1 Polymer 
     109 H            4.1894    -4.0602    -8.1834 H             1 Polymer 
     110 H            4.4063    -2.3515    -8.5850 H             1 Polymer 
     111 H            6.0980    -4.1271    -6.6658 H             1 Polymer 
     112 H            7.9045    -4.2321    -8.2961 H             1 Polymer 
     113 H            6.8269    -3.5348    -9.5497 H             1 Polymer 
     114 H            5.3397    -5.6014    -9.2092 H             1 Polymer 
     115 H            6.3711    -6.0822    -7.8068 H             1 Polymer 
     116 H            7.3180    -5.9112   -10.7277 H             1 Polymer 
     117 H            8.3393    -6.3494    -9.3019 H             1 Polymer 
     118 H            7.5594    -8.3852   -10.4759 H             1 Polymer 
     119 H            5.8380    -7.8929   -10.2338 H             1 Polymer 
     120 H            6.8769    -8.3037    -8.8103 H             1 Polymer 
     121 H            6.8574    -1.3447    -7.7576 H             1 Polymer 
     122 H            6.2583    -1.7058    -6.1217 H             1 Polymer 
     123 H            8.9240    -2.6569    -7.3362 H             1 Polymer 
     124 H            8.3302    -3.1964    -5.7217 H             1 Polymer 
     125 H            8.8090    -0.2962    -6.5729 H             1 Polymer 
     126 H            8.4715    -0.8361    -4.8929 H             1 Polymer 
     127 H           10.9253    -1.4937    -6.6636 H             1 Polymer 
     128 H           10.9130    -0.2452    -5.3841 H             1 Polymer 
     129 H           10.5700    -3.2760    -4.8649 H             1 Polymer 
     130 H           12.1122    -2.3638    -4.7840 H             1 Polymer 
     131 H           11.2991    -0.9162    -2.9819 H             1 Polymer 
     132 H            9.7076    -1.7518    -2.9697 H             1 Polymer 
     133 H           11.2043    -2.6543    -2.5294 H             1 Polymer 
     134 C            0.7366    -1.7480     0.1618 C             1 Polymer 
     135 C           -0.3241    -2.5353     1.0758 C             1 Polymer 
     136 C           -0.4667    -2.8944     2.6607 C             1 Polymer 
     137 C           -0.0329    -2.1237     4.0333 C             1 Polymer 
     138 C           -0.1153    -0.5590     4.3904 C             1 Polymer 
     139 C            1.1924     0.2502     4.0394 C             1 Polymer 
     140 C            1.2277     1.8160     3.7389 C             1 Polymer 
     141 C            2.7050     2.2927     3.5246 C             1 Polymer 
     142 C            3.1399     3.7953     3.7080 C             1 Polymer 
     143 C            3.5542     4.6103     2.4507 C             1 Polymer 
     144 C            4.2171     6.0231     2.7338 C             1 Polymer 
     145 C            5.7830     6.1353     2.9639 C             1 Polymer 
     146 C            6.2786     7.6138     3.0777 C             1 Polymer 
     147 C            5.9666     8.5994     1.9487 C             1 Polymer 
     148 C            6.7126     9.9219     2.2434 C             1 Polymer 
     149 C            6.4314    11.0013     1.2095 C             1 Polymer 
     150 C            6.2891     5.4038     4.2378 C             1 Polymer 
     151 C            7.8317     5.4224     4.4307 C             1 Polymer 
     152 C            8.2508     4.6391     5.6775 C             1 Polymer 
     153 C            9.7608     4.5894     5.9239 C             1 Polymer 
     154 C           10.5600     4.0138     4.7575 C             1 Polymer 
     155 C           10.1645     2.5837     4.3947 C             1 Polymer 
     156 H            0.1828    -1.2473    -0.6727 H             1 Polymer 
     157 H            1.4029    -2.3399    -0.3352 H             1 Polymer 
     158 H           -0.9202    -3.2364     0.4544 H             1 Polymer 
     159 H           -0.9202    -3.2364     0.4544 H             1 Polymer 
     160 H           -1.5539    -3.0068     2.7805 H             1 Polymer 
     161 H           -0.1469    -3.9441     2.7976 H             1 Polymer 
     162 H            0.9597    -2.4776     4.3723 H             1 Polymer 
     163 H           -0.7099    -2.6073     4.7720 H             1 Polymer 
     164 H           -1.0673    -0.0953     4.0647 H             1 Polymer 
     165 H           -0.2008    -0.4666     5.4943 H             1 Polymer 
     166 H            1.6580    -0.1919     3.2000 H             1 Polymer 
     167 H            1.8913    -0.0204     4.8388 H             1 Polymer 
     168 H            0.7922     2.3624     4.5673 H             1 Polymer 
     169 H            0.6328     2.1095     2.8598 H             1 Polymer 
     170 H            3.1980     1.8179     2.6483 H             1 Polymer 
     171 H            3.1635     1.8359     4.3908 H             1 Polymer 
     172 H            2.4063     4.3422     4.3297 H             1 Polymer 
     173 H            4.0550     3.7531     4.3054 H             1 Polymer 
     174 H            4.2424     4.0298     1.7983 H             1 Polymer 
     175 H            2.6114     4.7733     1.8863 H             1 Polymer 
     176 H            4.0515     6.5923     1.7951 H             1 Polymer 
     177 H            3.6549     6.5474     3.5353 H             1 Polymer 
     178 H            6.2748     5.6766     2.0763 H             1 Polymer 
     179 H            7.3842     7.5956     3.1010 H             1 Polymer 
     180 H            5.9054     8.0495     4.0312 H             1 Polymer 
     181 H            4.8737     8.7834     1.9023 H             1 Polymer 
     182 H            6.3194     8.1896     0.9773 H             1 Polymer 
     183 H            6.4133    10.3101     3.2422 H             1 Polymer 
     184 H            7.8110     9.7350     2.2612 H             1 Polymer 
     185 H            7.0046    11.9168     1.4749 H             1 Polymer 
     186 H            5.3500    11.2492     1.2041 H             1 Polymer 
     187 H            6.7472    10.6639     0.2007 H             1 Polymer 
     188 H            5.8032     5.8362     5.1394 H             1 Polymer 
     189 H            6.0056     4.3594     4.1459 H             1 Polymer 
     190 H            8.2309     6.4423     4.5810 H             1 Polymer 
     191 H            8.2883     4.9749     3.5216 H             1 Polymer 
     192 H            7.7646     5.0711     6.5768 H             1 Polymer 
     193 H            7.9164     3.6184     5.5623 H             1 Polymer 
     194 H           10.1385     5.6122     6.1306 H             1 Polymer 
     195 H            9.9502     3.9618     6.8240 H             1 Polymer 
     196 H           10.4496     4.6533     3.8618 H             1 Polymer 
     197 H           11.6165     4.0281     5.0954 H             1 Polymer 
     198 H           10.6961     2.1298     3.5425 H             1 Polymer 
     199 H            9.1080     2.5323     4.0817 H             1 Polymer 
     200 H           10.4087     1.9699     5.2722 H             1 Polymer 
     201 C           -2.8541     2.6332    -1.9165 C             1 Polymer 
     202 C           -2.5797     4.1758    -1.5580 C             1 Polymer 
     203 C           -3.6874     5.2628    -1.1582 C             1 Polymer 
     204 C           -4.5652     5.4713     0.1595 C             1 Polymer 
     205 C           -3.9108     5.6692     1.5791 C             1 Polymer 
     206 C           -3.3420     4.4007     2.2621 C             1 Polymer 
     207 C           -2.8375     4.5630     3.7148 C             1 Polymer 
     208 C           -2.1503     3.2484     4.1941 C             1 Polymer 
     209 C           -1.6018     3.2323     5.6518 C             1 Polymer 
     210 C           -0.7158     4.4501     5.9486 C             1 Polymer 
     211 C           -0.0575     4.5212     7.3546 C             1 Polymer 
     212 C            1.4715     4.1915     7.4287 C             1 Polymer 
     213 C            2.1548     4.8160     8.6849 C             1 Polymer 
     214 C            1.9413     6.3238     8.8772 C             1 Polymer 
     215 C            2.8395     6.8547     9.9985 C             1 Polymer 
     216 C            2.5761     8.3343    10.2475 C             1 Polymer 
     217 C            1.8115     2.6671     7.3674 C             1 Polymer 
     218 C            3.3359     2.4505     7.2484 C             1 Polymer 
     219 C            3.8037     1.0186     6.9620 C             1 Polymer 
     220 C            5.3327     0.9262     6.9595 C             1 Polymer 
     221 C            6.1144     1.9297     6.0782 C             1 Polymer 
     222 C            6.1920     1.6715     4.5636 C             1 Polymer 
     223 H           -2.0253     2.2607    -2.5583 H             1 Polymer 
     224 H           -3.7585     2.6042    -2.5155 H             1 Polymer 
     225 H           -1.7340     4.2696    -0.8517 H             1 Polymer 
     226 H           -2.2104     4.5805    -2.5270 H             1 Polymer 
     227 H           -3.1436     6.2287    -1.2412 H             1 Polymer 
     228 H           -4.4258     5.2447    -1.9904 H             1 Polymer 
     229 H           -5.3925     4.7323     0.2349 H             1 Polymer 
     230 H           -5.1202     6.4154    -0.0337 H             1 Polymer 
     231 H           -3.1385     6.4625     1.5268 H             1 Polymer 
     232 H           -4.7246     6.0284     2.2499 H             1 Polymer 
     233 H           -2.5047     4.0263     1.6364 H             1 Polymer 
     234 H           -4.1651     3.6672     2.3441 H             1 Polymer 
     235 H           -3.6909     4.8145     4.3834 H             1 Polymer 
     236 H           -2.1003     5.3901     3.7372 H             1 Polymer 
     237 H           -1.3035     3.0683     3.5059 H             1 Polymer 
     238 H           -2.8527     2.3917     4.0890 H             1 Polymer 
     239 H           -2.4500     3.2325     6.3703 H             1 Polymer 
     240 H           -1.0435     2.2861     5.8095 H             1 Polymer 
     241 H            0.0454     4.6234     5.1590 H             1 Polymer 
     242 H           -1.4304     5.3014     5.8972 H             1 Polymer 
     243 H           -0.1075     5.6075     7.5382 H             1 Polymer 
     244 H           -0.6653     4.0488     8.1552 H             1 Polymer 
     245 H            1.9304     4.6996     6.5528 H             1 Polymer 
     246 H            3.2503     4.7057     8.5703 H             1 Polymer 
     247 H            1.8314     4.2805     9.6030 H             1 Polymer 
     248 H            0.8874     6.5221     9.1592 H             1 Polymer 
     249 H            2.1875     6.8610     7.9340 H             1 Polymer 
     250 H            2.6421     6.2922    10.9366 H             1 Polymer 
     251 H            3.9075     6.7168     9.7173 H             1 Polymer 
     252 H            3.2415     8.6977    11.0577 H             1 Polymer 
     253 H            1.5198     8.4831    10.5585 H             1 Polymer 
     254 H            2.7729     8.9228     9.3263 H             1 Polymer 
     255 H            1.4183     2.1306     8.2556 H             1 Polymer 
     256 H            1.3341     2.2160     6.5007 H             1 Polymer 
     257 H            3.8323     2.7486     8.1906 H             1 Polymer 
     258 H            3.6807     3.0995     6.4260 H             1 Polymer 
     259 H            3.4148     0.3311     7.7418 H             1 Polymer 
     260 H            3.4433     0.6455     6.0122 H             1 Polymer 
     261 H            5.6484     1.1316     8.0048 H             1 Polymer 
     262 H            5.6206    -0.1138     6.7136 H             1 Polymer 
     263 H            5.7906     2.9690     6.2680 H             1 Polymer 
     264 H            7.1413     1.8791     6.4564 H             1 Polymer 
     265 H            6.7062     0.7334     4.3569 H             1 Polymer 
     266 H            5.2242     1.6758     4.0602 H             1 Polymer 
     267 H            6.8220     2.4150     4.0483 H             1 Polymer 
     268 C           -4.1233     2.2057     0.1390 C             1 Polymer 
     269 C           -5.5784     1.7337    -0.2709 C             1 Polymer 
     270 C           -6.2456     1.7878    -1.7062 C             1 Polymer 
     271 C           -5.9118     1.1860    -3.1692 C             1 Polymer 
     272 C           -5.7093    -0.3317    -3.6280 C             1 Polymer 
     273 C           -4.2173    -0.7666    -3.9657 C             1 Polymer 
     274 C           -3.9670    -2.2960    -4.3310 C             1 Polymer 
     275 C           -2.5467    -2.5349    -4.9918 C             1 Polymer 
     276 C           -2.0219    -3.9693    -5.5224 C             1 Polymer 
     277 C           -0.9654    -4.7161    -4.6140 C             1 Polymer 
     278 C            0.0216    -5.8632    -5.2001 C             1 Polymer 
     279 C            1.3972    -6.2876    -4.4119 C             1 Polymer 
     280 C            1.8497    -7.7644    -4.6255 C             1 Polymer 
     281 C            1.3687    -8.7047    -3.4947 C             1 Polymer 
     282 C            2.2246    -9.9826    -3.4385 C             1 Polymer 
     283 C            1.8659   -10.8522    -2.2370 C             1 Polymer 
     284 C            2.6852    -5.3790    -4.6455 C             1 Polymer 
     285 C            3.9249    -5.6330    -3.6853 C             1 Polymer 
     286 C            4.7510    -4.3935    -3.1698 C             1 Polymer 
     287 C            6.1828    -4.2171    -3.6489 C             1 Polymer 
     288 C            6.9160    -3.0703    -2.9286 C             1 Polymer 
     289 C            6.3018    -1.6608    -3.0385 C             1 Polymer 
     290 H           -4.0269     1.9079     1.2061 H             1 Polymer 
     291 H           -4.0457     3.2282     0.1676 H             1 Polymer 
     292 H           -5.7597     0.7343     0.1541 H             1 Polymer 
     293 H           -6.2387     2.3303     0.3987 H             1 Polymer 
     294 H           -7.2574     1.3813    -1.4798 H             1 Polymer 
     295 H           -6.3845     2.8762    -1.8835 H             1 Polymer 
     296 H           -5.1935     1.8037    -3.7295 H             1 Polymer 
     297 H           -6.8679     1.4561    -3.6735 H             1 Polymer 
     298 H           -6.2794    -1.0240    -2.9733 H             1 Polymer 
     299 H           -6.2250    -0.4413    -4.6072 H             1 Polymer 
     300 H           -3.5175    -0.4951    -3.1564 H             1 Polymer 
     301 H           -3.9210    -0.1381    -4.8329 H             1 Polymer 
     302 H           -4.7330    -2.6142    -5.0703 H             1 Polymer 
     303 H           -4.0866    -2.9111    -3.4137 H             1 Polymer 
     304 H           -1.7690    -2.0776    -4.3487 H             1 Polymer 
     305 H           -2.6013    -1.8960    -5.9007 H             1 Polymer 
     306 H           -2.8451    -4.6059    -5.9039 H             1 Polymer 
     307 H           -1.4046    -3.7039    -6.4092 H             1 Polymer 
     308 H           -0.3554    -3.8763    -4.3833 H             1 Polymer 
     309 H           -1.4580    -5.0728    -3.6827 H             1 Polymer 
     310 H           -0.6212    -6.7643    -5.2762 H             1 Polymer 
     311 H            0.3284    -5.5931    -6.2320 H             1 Polymer 
     312 H            1.1891    -6.2368    -3.3370 H             1 Polymer 
     313 H            2.9481    -7.8080    -4.5154 H             1 Polymer 
     314 H            1.6630    -8.1329    -5.6540 H             1 Polymer 
     315 H            0.2859    -8.9216    -3.5996 H             1 Polymer 
     316 H            1.5334    -8.2032    -2.5124 H             1 Polymer 
     317 H            2.1137   -10.5605    -4.3781 H             1 Polymer 
     318 H            3.2966    -9.6989    -3.3197 H             1 Polymer 
     319 H            2.5363   -11.7377    -2.2102 H             1 Polymer 
     320 H            0.8135   -11.1930    -2.3063 H             1 Polymer 
     321 H            2.0082   -10.2843    -1.2906 H             1 Polymer 
     322 H            3.0243    -5.4188    -5.7009 H             1 Polymer 
     323 H            2.3694    -4.3959    -4.4275 H             1 Polymer 
     324 H            4.5911    -6.4658    -3.9834 H             1 Polymer 
     325 H            3.4775    -6.0425    -2.7707 H             1 Polymer 
     326 H            4.3006    -3.4530    -3.4568 H             1 Polymer 
     327 H            4.8050    -4.4578    -2.0591 H             1 Polymer 
     328 H            6.7517    -5.1509    -3.4687 H             1 Polymer 
     329 H            6.1870    -3.9894    -4.7001 H             1 Polymer 
     330 H            6.9656    -3.3474    -1.8670 H             1 Polymer 
     331 H            7.9440    -3.0297    -3.3333 H             1 Polymer 
     332 H            6.1958    -1.3246    -4.0761 H             1 Polymer 
     333 H            5.3137    -1.5995    -2.5392 H             1 Polymer 
     334 H            6.9742    -0.9234    -2.5542 H             1 Polymer 
     335 C           13.2984     3.6501     3.0447 C             1 Polymer 
     336 C           12.9899     5.0955     2.3976 C             1 Polymer 
     337 C           14.1820     6.1340     2.2216 C             1 Polymer 
     338 C           15.0592     6.3877     0.9074 C             1 Polymer 
     339 C           15.8709     5.4626    -0.1530 C             1 Polymer 
     340 C           15.0714     4.4817    -1.1556 C             1 Polymer 
     341 C           15.5980     3.8561    -2.5368 C             1 Polymer 
     342 C           14.4880     2.9998    -3.2271 C             1 Polymer 
     343 C           14.2403     3.1291    -4.7732 C             1 Polymer 
     344 C           13.8599     4.5644    -5.2104 C             1 Polymer 
     345 C           13.1917     4.7927    -6.6043 C             1 Polymer 
     346 C           11.6351     5.0399    -6.5797 C             1 Polymer 
     347 C           11.1097     5.7784    -7.8483 C             1 Polymer 
     348 C           11.6124     7.2415    -7.9316 C             1 Polymer 
     349 C           10.8837     8.0394    -9.0199 C             1 Polymer 
     350 C           11.3388     9.4989    -9.0225 C             1 Polymer 
     351 C           10.8176     3.7497    -6.2362 C             1 Polymer 
     352 C            9.2793     3.9815    -6.0993 C             1 Polymer 
     353 C            8.5215     2.7273    -5.6191 C             1 Polymer 
     354 C            6.9807     2.8260    -5.7776 C             1 Polymer 
     355 C            6.2584     3.9128    -4.9583 C             1 Polymer 
     356 C            6.2471     3.6243    -3.4624 C             1 Polymer 
     357 H           12.4052     3.1725     3.3516 H             1 Polymer 
     358 H           13.8427     3.8596     3.9479 H             1 Polymer 
     359 H           12.3783     5.0646     1.4744 H             1 Polymer 
     360 H           12.3628     5.5748     3.1760 H             1 Polymer 
     361 H           13.7210     7.1350     2.3928 H             1 Polymer 
     362 H           14.8282     6.0529     3.0878 H             1 Polymer 
     363 H           14.4188     7.0257     0.3302 H             1 Polymer 
     364 H           15.8302     7.1043     1.2816 H             1 Polymer 
     365 H           16.3042     6.2605    -0.6891 H             1 Polymer 
     366 H           16.7521     4.9431     0.2688 H             1 Polymer 
     367 H           14.2083     5.0629    -1.3593 H             1 Polymer 
     368 H           14.6758     3.5879    -0.6704 H             1 Polymer 
     369 H           16.4912     3.2203    -2.3933 H             1 Polymer 
     370 H           15.9283     4.5642    -3.3077 H             1 Polymer 
     371 H           13.5166     3.2543    -2.7690 H             1 Polymer 
     372 H           14.6813     1.9379    -2.9647 H             1 Polymer 
     373 H           15.1204     2.7884    -5.3639 H             1 Polymer 
     374 H           13.3935     2.4527    -5.0036 H             1 Polymer 
     375 H           13.2017     5.0246    -4.4608 H             1 Polymer 
     376 H           14.8216     5.1214    -5.2095 H             1 Polymer 
     377 H           13.6203     5.7603    -6.9235 H             1 Polymer 
     378 H           13.5204     4.0537    -7.3653 H             1 Polymer 
     379 H           11.4451     5.7831    -5.7994 H             1 Polymer 
     380 H           10.0127     5.8882    -7.7585 H             1 Polymer 
     381 H           11.3284     5.2078    -8.7744 H             1 Polymer 
     382 H           12.7017     7.2818    -8.1270 H             1 Polymer 
     383 H           11.4049     7.7457    -6.9596 H             1 Polymer 
     384 H           11.0825     7.5867   -10.0138 H             1 Polymer 
     385 H            9.7877     8.0202    -8.8282 H             1 Polymer 
     386 H           10.7955    10.0599    -9.8115 H             1 Polymer 
     387 H           12.4292     9.5650    -9.2217 H             1 Polymer 
     388 H           11.1208     9.9746    -8.0411 H             1 Polymer 
     389 H           10.9952     2.9786    -7.0165 H             1 Polymer 
     390 H           11.1894     3.3523    -5.2689 H             1 Polymer 
     391 H            8.8676     4.2422    -7.0940 H             1 Polymer 
     392 H            9.0756     4.8130    -5.3948 H             1 Polymer 
     393 H            8.8398     1.8916    -6.2686 H             1 Polymer 
     394 H            8.8030     2.4737    -4.5763 H             1 Polymer 
     395 H            6.7680     3.0196    -6.8505 H             1 Polymer 
     396 H            6.5282     1.8412    -5.5242 H             1 Polymer 
     397 H            6.7040     4.9095    -5.1588 H             1 Polymer 
     398 H            5.1952     3.9451    -5.2837 H             1 Polymer 
     399 H            5.7381     2.6606    -3.2500 H             1 Polymer 
     400 H            7.2745     3.5645    -3.0895 H             1 Polymer 
     401 H            5.7084     4.4355    -2.9253 H             1 Polymer 
     402 C           15.2560     3.3738     1.7532 C             1 Polymer 
     403 C           16.3093     3.9392     2.8486 C             1 Polymer 
     404 C           16.2377     4.2424     4.4500 C             1 Polymer 
     405 C           15.5528     3.5409     5.7474 C             1 Polymer 
     406 C           15.4809     1.9937     6.1079 C             1 Polymer 
     407 C           14.1507     1.3034     5.6202 C             1 Polymer 
     408 C           14.1187    -0.2625     5.3897 C             1 Polymer 
     409 C           12.6684    -0.6943     5.0423 C             1 Polymer 
     410 C           12.2433    -2.1958     5.1065 C             1 Polymer 
     411 C           12.1490    -2.9745     3.7724 C             1 Polymer 
     412 C           11.4793    -4.3973     3.8938 C             1 Polymer 
     413 C            9.9053    -4.5294     3.7880 C             1 Polymer 
     414 C            9.4345    -6.0168     3.8001 C             1 Polymer 
     415 C            9.9954    -6.9980     2.7694 C             1 Polymer 
     416 C            9.2081    -8.3226     2.9043 C             1 Polymer 
     417 C            9.6820    -9.3964     1.9396 C             1 Polymer 
     418 C            9.1051    -3.7944     4.9104 C             1 Polymer 
     419 C            7.5608    -3.8855     4.7444 C             1 Polymer 
     420 C            6.7544    -3.1467     5.8260 C             1 Polymer 
     421 C            5.2315    -3.1934     5.5742 C             1 Polymer 
     422 C            4.8091    -2.7087     4.1766 C             1 Polymer 
     423 C            5.3495    -1.3245     3.8575 C             1 Polymer 
     424 H           15.8554     2.8699     0.9548 H             1 Polymer 
     425 H           14.7672     4.1086     1.2596 H             1 Polymer 
     426 H           16.8243     4.8171     2.4141 H             1 Polymer 
     427 H           17.1321     3.2545     2.7068 H             1 Polymer 
     428 H           17.3175     4.2825     4.7069 H             1 Polymer 
     429 H           15.9749     5.3041     4.5878 H             1 Polymer 
     430 H           14.5455     3.9632     5.9250 H             1 Polymer 
     431 H           16.1462     3.9888     6.5768 H             1 Polymer 
     432 H           16.4155     1.4777     5.8122 H             1 Polymer 
     433 H           15.4644     1.8782     7.2129 H             1 Polymer 
     434 H           13.8081     1.7464     4.6889 H             1 Polymer 
     435 H           13.3695     1.6145     6.3433 H             1 Polymer 
     436 H           14.4478    -0.7763     6.2968 H             1 Polymer 
     437 H           14.7991    -0.6130     4.5963 H             1 Polymer 
     438 H           12.2800    -0.2020     4.1222 H             1 Polymer 
     439 H           12.1323    -0.2567     5.8799 H             1 Polymer 
     440 H           12.8536    -2.7415     5.8506 H             1 Polymer 
     441 H           11.2268    -2.1882     5.5080 H             1 Polymer 
     442 H           11.6057    -2.3949     2.9935 H             1 Polymer 
     443 H           13.1983    -3.1007     3.4279 H             1 Polymer 
     444 H           11.8540    -4.9536     3.0087 H             1 Polymer 
     445 H           11.8685    -4.9174     4.7946 H             1 Polymer 
     446 H            9.6120    -4.0872     2.8085 H             1 Polymer 
     447 H            8.3554    -6.0224     3.5709 H             1 Polymer 
     448 H            9.5982    -6.4407     4.8157 H             1 Polymer 
     449 H           11.0750    -7.1722     2.9562 H             1 Polymer 
     450 H            9.8533    -6.5909     1.7444 H             1 Polymer 
     451 H            9.3028    -8.7133     3.9418 H             1 Polymer 
     452 H            8.1278    -8.1361     2.7039 H             1 Polymer 
     453 H            9.0625   -10.3088     2.0837 H             1 Polymer 
     454 H           10.7426    -9.6489     2.1424 H             1 Polymer 
     455 H            9.5668    -9.0507     0.8915 H             1 Polymer 
     456 H            9.3932    -4.1887     5.9082 H             1 Polymer 
     457 H            9.3588    -2.7368     4.8443 H             1 Polymer 
     458 H            7.1875    -4.9221     4.8075 H             1 Polymer 
     459 H            7.3389    -3.4736     3.7388 H             1 Polymer 
     460 H            6.9685    -3.5822     6.8243 H             1 Polymer 
     461 H            7.0416    -2.0956     5.8738 H             1 Polymer 
     462 H            4.8605    -4.2327     5.6939 H             1 Polymer 
     463 H            4.7357    -2.5608     6.3441 H             1 Polymer 
     464 H            5.1780    -3.4127     3.4072 H             1 Polymer 
     465 H            3.7007    -2.7020     4.1363 H             1 Polymer 
     466 H            4.9074    -0.6144     4.5759 H             1 Polymer 
     467 H            6.4513    -1.3326     3.8889 H             1 Polymer 
     468 H            5.1384    -0.9690     2.8388 H             1 Polymer 
     469 C           18.5356    -1.5652     0.1700 C             1 Polymer 
     470 C           18.3917    -3.1790     0.3344 C             1 Polymer 
     471 C           19.3431    -4.1677     1.2495 C             1 Polymer 
     472 C           19.1070    -4.7073     2.7812 C             1 Polymer 
     473 C           19.5065    -4.2395     4.2869 C             1 Polymer 
     474 C           18.7870    -3.0339     4.9686 C             1 Polymer 
     475 C           18.3424    -2.9777     6.4483 C             1 Polymer 
     476 C           17.4926    -1.6603     6.6483 C             1 Polymer 
     477 C           16.6659    -1.5067     7.9563 C             1 Polymer 
     478 C           15.7258    -2.7050     8.1398 C             1 Polymer 
     479 C           14.7526    -2.6906     9.3461 C             1 Polymer 
     480 C           13.2426    -2.3948     9.0476 C             1 Polymer 
     481 C           12.3024    -3.0476    10.1134 C             1 Polymer 
     482 C           12.4766    -4.5590    10.3276 C             1 Polymer 
     483 C           11.3498    -5.1109    11.2056 C             1 Polymer 
     484 C           11.5501    -6.5978    11.4681 C             1 Polymer 
     485 C           12.8896    -0.8737     8.8895 C             1 Polymer 
     486 C           11.3879    -0.6967     8.5635 C             1 Polymer 
     487 C           10.8816     0.7034     8.1963 C             1 Polymer 
     488 C            9.3406     0.6902     8.0944 C             1 Polymer 
     489 C            8.7223    -0.3832     7.1654 C             1 Polymer 
     490 C            8.9975    -0.1541     5.6860 C             1 Polymer 
     491 H           17.8880    -1.1808    -0.6453 H             1 Polymer 
     492 H           19.5246    -1.4147    -0.1944 H             1 Polymer 
     493 H           17.3349    -3.4317     0.5479 H             1 Polymer 
     494 H           18.5960    -3.5155    -0.7068 H             1 Polymer 
     495 H           19.1795    -5.1215     0.7023 H             1 Polymer 
     496 H           20.4147    -3.9759     1.0850 H             1 Polymer 
     497 H           18.0382    -4.9909     2.8321 H             1 Polymer 
     498 H           19.6895    -5.6564     2.7554 H             1 Polymer 
     499 H           19.2219    -5.1065     4.9185 H             1 Polymer 
     500 H           20.6083    -4.1377     4.4247 H             1 Polymer 
     501 H           17.8224    -2.9349     4.4317 H             1 Polymer 
     502 H           19.5133    -2.2002     4.9411 H             1 Polymer 
     503 H           19.2052    -2.9997     7.1514 H             1 Polymer 
     504 H           17.7124    -3.8690     6.6147 H             1 Polymer 
     505 H           16.7419    -1.6083     5.8314 H             1 Polymer 
     506 H           18.1505    -0.7691     6.5315 H             1 Polymer 
     507 H           17.3379    -1.4177     8.8367 H             1 Polymer 
     508 H           16.0745    -0.5682     7.8899 H             1 Polymer 
     509 H           15.1667    -2.9453     7.2093 H             1 Polymer 
     510 H           16.4273    -3.5463     8.3235 H             1 Polymer 
     511 H           14.7659    -3.7627     9.5925 H             1 Polymer 
     512 H           15.1537    -2.1769    10.2444 H             1 Polymer 
     513 H           13.0006    -2.9156     8.0971 H             1 Polymer 
     514 H           11.2605    -2.9628     9.7500 H             1 Polymer 
     515 H           12.3974    -2.5189    11.0857 H             1 Polymer 
     516 H           13.4360    -4.7678    10.8408 H             1 Polymer 
     517 H           12.4527    -5.0788     9.3432 H             1 Polymer 
     518 H           11.3344    -4.5715    12.1773 H             1 Polymer 
     519 H           10.3708    -4.9606    10.6980 H             1 Polymer 
     520 H           10.7231    -6.9763    12.1035 H             1 Polymer 
     521 H           12.5130    -6.7624    11.9973 H             1 Polymer 
     522 H           11.5577    -7.1611    10.5107 H             1 Polymer 
     523 H           13.1287    -0.3125     9.8168 H             1 Polymer 
     524 H           13.4857    -0.4304     8.0868 H             1 Polymer 
     525 H           10.8001    -0.9798     9.4566 H             1 Polymer 
     526 H           11.1573    -1.3777     7.7221 H             1 Polymer 
     527 H           11.1665     1.4298     8.9857 H             1 Polymer 
     528 H           11.3155     1.0702     7.2549 H             1 Polymer 
     529 H            8.9424     0.4893     9.1118 H             1 Polymer 
     530 H            8.9891     1.7011     7.7983 H             1 Polymer 
     531 H            9.0163    -1.4119     7.4524 H             1 Polymer 
     532 H            7.6394    -0.3417     7.3198 H             1 Polymer 
     533 H            8.6375     0.8271     5.4043 H             1 Polymer 
     534 H           10.0574    -0.2415     5.4498 H             1 Polymer 
     535 H            8.4604    -0.8371     5.0194 H             1 Polymer 
     536 C           19.0870    -1.5243     2.4501 C             1 Polymer 
     537 C           20.6804    -1.5153     2.3276 C             1 Polymer 
     538 C           21.6450    -1.3655     1.0259 C             1 Polymer 
     539 C           21.7702    -0.4331    -0.3196 C             1 Polymer 
     540 C           21.7635     1.1505    -0.6089 C             1 Polymer 
     541 C           20.4473     1.8683    -1.1407 C             1 Polymer 
     542 C           20.5837     3.4152    -1.5682 C             1 Polymer 
     543 C           19.2930     3.9740    -2.3172 C             1 Polymer 
     544 C           19.1297     5.4444    -3.0069 C             1 Polymer 
     545 C           17.9690     6.3647    -2.4176 C             1 Polymer 
     546 C           17.1403     7.5246    -3.2096 C             1 Polymer 
     547 C           15.6365     7.9698    -2.6968 C             1 Polymer 
     548 C           15.2318     9.4610    -2.9430 C             1 Polymer 
     549 C           15.4722    10.3847    -1.7228 C             1 Polymer 
     550 C           14.6168    11.6653    -1.8240 C             1 Polymer 
     551 C           14.7372    12.5384    -0.5773 C             1 Polymer 
     552 C           14.3953     7.0971    -3.2023 C             1 Polymer 
     553 C           13.0878     7.2427    -2.3261 C             1 Polymer 
     554 C           12.0134     6.1099    -2.1940 C             1 Polymer 
     555 C           10.8724     6.0994    -3.2027 C             1 Polymer 
     556 C            9.5229     5.8061    -2.5422 C             1 Polymer 
     557 C            9.4757     4.4236    -1.9209 C             1 Polymer 
     558 H           18.8451    -1.1736     3.4517 H             1 Polymer 
     559 H           18.5578    -2.4322     2.5395 H             1 Polymer 
     560 H           21.0457    -2.3872     2.9023 H             1 Polymer 
     561 H           20.9607    -0.7667     3.0682 H             1 Polymer 
     562 H           22.6429    -1.2822     1.5075 H             1 Polymer 
     563 H           21.6977    -2.3795     0.5985 H             1 Polymer 
     564 H           21.2332    -0.8944    -1.1676 H             1 Polymer 
     565 H           22.8206    -0.6962    -0.5902 H             1 Polymer 
     566 H           22.2148     1.6908     0.2269 H             1 Polymer 
     567 H           22.4638     1.2855    -1.4618 H             1 Polymer 
     568 H           19.6316     1.7734    -0.4008 H             1 Polymer 
     569 H           20.1412     1.2977    -2.0434 H             1 Polymer 
     570 H           21.4463     3.5086    -2.2622 H             1 Polymer 
     571 H           20.7967     4.0242    -0.6644 H             1 Polymer 
     572 H           18.4397     3.7956    -1.6399 H             1 Polymer 
     573 H           19.1786     3.2565    -3.1596 H             1 Polymer 
     574 H           20.0956     5.9585    -3.1911 H             1 Polymer 
     575 H           18.7347     5.2134    -4.0216 H             1 Polymer 
     576 H           17.2607     5.6054    -2.2783 H             1 Polymer 
     577 H           18.2955     6.7446    -1.4240 H             1 Polymer 
     578 H           17.7983     8.4168    -3.1716 H             1 Polymer 
     579 H           17.0266     7.2410    -4.2755 H             1 Polymer 
     580 H           15.6395     7.8927    -1.6072 H             1 Polymer 
     581 H           14.1322     9.5054    -3.0472 H             1 Polymer 
     582 H           15.6043     9.8545    -3.9086 H             1 Polymer 
     583 H           16.5524    10.6084    -1.6112 H             1 Polymer 
     584 H           15.1199     9.8677    -0.7996 H             1 Polymer 
     585 H           14.9033    12.2479    -2.7230 H             1 Polymer 
     586 H           13.5416    11.3826    -1.9140 H             1 Polymer 
     587 H           14.0746    13.4250    -0.6820 H             1 Polymer 
     588 H           15.7825    12.8821    -0.4447 H             1 Polymer 
     589 H           14.4156    11.9744     0.3259 H             1 Polymer 
     590 H           14.1702     7.2664    -4.2750 H             1 Polymer 
     591 H           14.6842     6.0930    -3.1047 H             1 Polymer 
     592 H           12.5658     8.2106    -2.4372 H             1 Polymer 
     593 H           13.4660     7.2785    -1.3284 H             1 Polymer 
     594 H           12.3655     5.0694    -2.0971 H             1 Polymer 
     595 H           11.5527     6.3140    -1.2016 H             1 Polymer 
     596 H           10.7933     7.0834    -3.7027 H             1 Polymer 
     597 H           11.0501     5.2798    -3.9055 H             1 Polymer 
     598 H            9.3253     6.5698    -1.7579 H             1 Polymer 
     599 H            8.7134     5.8735    -3.2971 H             1 Polymer 
     600 H            9.6007     3.6287    -2.6828 H             1 Polymer 
     601 H           10.2696     4.2966    -1.1577 H             1 Polymer 
     602 H            8.4797     4.3263    -1.4499 H             1 Polymer 
     603 C           31.5431     2.3707     3.8637 C             1 Polymer 
     604 C           32.7651     2.9862     3.1595 C             1 Polymer 
     605 C           32.5243     4.2570     2.6987 C             1 Polymer 
     606 C           31.1658     4.6580     3.0405 C             1 Polymer 
     607 C           30.1733     5.6078     2.5550 C             1 Polymer 
     608 C           28.8261     5.4014     3.0553 C             1 Polymer 
     609 C           28.6830     4.5013     4.0748 C             1 Polymer 
     610 C           29.6295     3.7637     4.6044 C             1 Polymer 
     611 C           30.8217     3.7175     4.0126 C             1 Polymer 
     612 C           27.4170     3.9681     4.1475 C             1 Polymer 
     613 C           26.8240     4.2752     3.0324 C             1 Polymer 
     614 C           27.3584     5.6335     2.5422 C             1 Polymer 
     615 C           25.5553     3.7797     3.2254 C             1 Polymer 
     616 C           25.2325     3.7453     4.7013 C             1 Polymer 
     617 S           26.6178     2.8866     5.3657 S             1 Polymer 
     618 S           33.9795     5.0374     2.3742 S             1 Polymer 
     619 C           34.9834     3.7163     2.8508 C             1 Polymer 
     620 C           34.1418     2.6527     3.2236 C             1 Polymer 
     621 H           30.3839     6.2373     1.7015 H             1 Polymer 
     622 H           29.3479     2.9853     5.1996 H             1 Polymer 
     623 H           25.0044     3.3650     2.4340 H             1 Polymer 
     624 H           34.5170     1.7480     3.6731 H             1 Polymer 
     625 C           38.4737     5.1425     3.5854 C             1 Polymer 
     626 F           38.8899     6.3839     3.9125 F             1 Polymer 
     627 C           37.0950     5.0110     3.3140 C             1 Polymer 
     628 C           36.4873     3.7679     3.0678 C             1 Polymer 
     629 C           37.3453     2.6440     3.1366 C             1 Polymer 
     630 N           36.9054     1.3679     3.0188 N             1 Polymer 
     631 S           38.2915     0.4814     3.1539 S             1 Polymer 
     632 N           39.4677     1.6161     3.3579 N             1 Polymer 
     633 C           38.7716     2.7817     3.3316 C             1 Polymer 
     634 C           39.3846     4.0390     3.5437 C             1 Polymer 
     635 H           36.4789     5.8995     3.3537 H             1 Polymer 
     636 C           43.7820     5.9240     5.6604 C             1 Polymer 
     637 C           42.8589     5.1216     4.7225 C             1 Polymer 
     638 C           43.3254     3.8852     4.4151 C             1 Polymer 
     639 C           44.6553     3.7171     5.0109 C             1 Polymer 
     640 C           45.7837     2.8766     4.7163 C             1 Polymer 
     641 C           47.0373     3.2857     5.3190 C             1 Polymer 
     642 C           47.0004     4.3168     6.2149 C             1 Polymer 
     643 C           45.9068     4.8772     6.6908 C             1 Polymer 
     644 C           44.7501     4.7377     5.9504 C             1 Polymer 
     645 C           48.2646     4.9752     6.2865 C             1 Polymer 
     646 C           49.0979     4.4126     5.3823 C             1 Polymer 
     647 C           48.5370     3.0245     4.9687 C             1 Polymer 
     648 C           50.3287     5.0753     5.4095 C             1 Polymer 
     649 C           50.4004     6.1619     6.2600 C             1 Polymer 
     650 S           48.9171     6.3570     7.0307 S             1 Polymer 
     651 S           42.1212     2.9787     3.6539 S             1 Polymer 
     652 C           40.8868     4.1793     3.8058 C             1 Polymer 
     653 C           41.5023     5.3115     4.3690 C             1 Polymer 
     654 H           45.7174     2.1529     3.9233 H             1 Polymer 
     655 H           46.1137     5.6460     7.3272 H             1 Polymer 
     656 H           51.2113     4.7462     4.9524 H             1 Polymer 
     657 H           40.9660     6.1914     4.6356 H             1 Polymer 
     658 C           52.7919     6.0554     6.9657 C             1 Polymer 
     659 F           52.7084     4.7131     7.0725 F             1 Polymer 
     660 C           54.0198     6.6455     7.2845 C             1 Polymer 
     661 C           54.1807     8.0262     7.2252 C             1 Polymer 
     662 C           53.1000     8.8207     6.8458 C             1 Polymer 
     663 N           53.1677    10.1688     6.7344 N             1 Polymer 
     664 S           51.6363    10.5568     6.2514 S             1 Polymer 
     665 N           50.8569     9.1015     6.1757 N             1 Polymer 
     666 C           51.8311     8.2302     6.5460 C             1 Polymer 
     667 C           51.6731     6.8389     6.5918 C             1 Polymer 
     668 H           54.8722     6.0274     7.5814 H             1 Polymer 
     669 C           32.0359     1.2090     4.7867 C             1 Polymer 
     670 C           32.4408    -0.1858     4.1121 C             1 Polymer 
     671 C           31.3196    -1.1744     3.5698 C             1 Polymer 
     672 C           30.8381    -1.2812     2.0554 C             1 Polymer 
     673 C           30.1041    -0.3255     0.9795 C             1 Polymer 
     674 C           30.9249     0.8302     0.2351 C             1 Polymer 
     675 C           30.7980     1.1984    -1.3005 C             1 Polymer 
     676 C           32.0167     2.0646    -1.7253 C             1 Polymer 
     677 C           32.5854     1.8954    -3.1713 C             1 Polymer 
     678 C           32.9841     0.4265    -3.4840 C             1 Polymer 
     679 C           33.9175     0.1364    -4.6976 C             1 Polymer 
     680 C           35.4259    -0.1321    -4.3409 C             1 Polymer 
     681 C           36.1978    -0.8786    -5.4671 C             1 Polymer 
     682 C           35.7040    -2.3334    -5.6529 C             1 Polymer 
     683 C           36.6320    -3.1408    -6.5672 C             1 Polymer 
     684 C           36.1720    -4.5953    -6.6592 C             1 Polymer 
     685 C           36.1656     1.1433    -3.8386 C             1 Polymer 
     686 C           37.6188     0.8926    -3.3264 C             1 Polymer 
     687 C           38.2574     2.1526    -2.7034 C             1 Polymer 
     688 C           39.7917     2.0440    -2.5117 C             1 Polymer 
     689 C           40.2996     0.9969    -1.5029 C             1 Polymer 
     690 C           40.0365     1.3791    -0.0467 C             1 Polymer 
     691 H           32.8671     1.5834     5.3264 H             1 Polymer 
     692 H           31.3139     0.9526     5.5359 H             1 Polymer 
     693 H           33.2480    -0.0989     3.3598 H             1 Polymer 
     694 H           32.8746    -0.7408     4.9721 H             1 Polymer 
     695 H           31.7629    -2.1851     3.7289 H             1 Polymer 
     696 H           30.4707    -1.1971     4.2502 H             1 Polymer 
     697 H           31.7438    -1.6011     1.5494 H             1 Polymer 
     698 H           30.1574    -2.1684     2.1146 H             1 Polymer 
     699 H           30.0111    -1.0883     0.2660 H             1 Polymer 
     700 H           29.0616    -0.0282     1.2192 H             1 Polymer 
     701 H           31.9287     0.5211     0.4356 H             1 Polymer 
     702 H           30.8860     1.8110     0.6960 H             1 Polymer 
     703 H           29.8432     1.6991    -1.5639 H             1 Polymer 
     704 H           30.8300     0.3426    -1.9616 H             1 Polymer 
     705 H           32.8743     1.7783    -1.0943 H             1 Polymer 
     706 H           31.7945     3.1259    -1.4873 H             1 Polymer 
     707 H           31.8665     2.2545    -3.9394 H             1 Polymer 
     708 H           33.4878     2.5360    -3.2172 H             1 Polymer 
     709 H           33.4352    -0.0564    -2.6010 H             1 Polymer 
     710 H           32.0226    -0.0895    -3.6906 H             1 Polymer 
     711 H           33.5421    -0.8344    -5.0709 H             1 Polymer 
     712 H           33.7713     0.8623    -5.5244 H             1 Polymer 
     713 H           35.4316    -0.8615    -3.5292 H             1 Polymer 
     714 H           37.2508    -0.9962    -5.1499 H             1 Polymer 
     715 H           36.1820    -0.3069    -6.4182 H             1 Polymer 
     716 H           34.6780    -2.3599    -6.0695 H             1 Polymer 
     717 H           35.6994    -2.8369    -4.6588 H             1 Polymer 
     718 H           36.6455    -2.6892    -7.5813 H             1 Polymer 
     719 H           37.6654    -3.1309    -6.1546 H             1 Polymer 
     720 H           36.8595    -5.1648    -7.3188 H             1 Polymer 
     721 H           35.1444    -4.6515    -7.0762 H             1 Polymer 
     722 H           36.1802    -5.0676    -5.6523 H             1 Polymer 
     723 H           36.1868     1.9071    -4.6440 H             1 Polymer 
     724 H           35.5764     1.5522    -3.0076 H             1 Polymer 
     725 H           38.2499     0.6053    -4.1898 H             1 Polymer 
     726 H           37.6356     0.0718    -2.5781 H             1 Polymer 
     727 H           38.1040     2.9770    -3.4264 H             1 Polymer 
     728 H           37.7521     2.4256    -1.7527 H             1 Polymer 
     729 H           40.2305     1.8004    -3.5032 H             1 Polymer 
     730 H           40.1941     3.0375    -2.2124 H             1 Polymer 
     731 H           39.8758    -0.0029    -1.7316 H             1 Polymer 
     732 H           41.4050     0.9273    -1.6136 H             1 Polymer 
     733 H           40.5356     2.3421     0.1950 H             1 Polymer 
     734 H           38.9567     1.4786     0.1596 H             1 Polymer 
     735 H           40.4604     0.5961     0.6195 H             1 Polymer 
     736 C           30.3881     1.6353     3.1551 C             1 Polymer 
     737 C           29.1320     1.0249     3.9833 C             1 Polymer 
     738 C           28.9006     0.5867     5.5346 C             1 Polymer 
     739 C           29.3114     1.1878     6.9905 C             1 Polymer 
     740 C           29.3402     2.7001     7.4939 C             1 Polymer 
     741 C           30.6988     3.4393     7.2424 C             1 Polymer 
     742 C           30.6790     5.0230     7.0858 C             1 Polymer 
     743 C           32.0930     5.5531     6.7123 C             1 Polymer 
     744 C           32.4653     7.0611     6.9456 C             1 Polymer 
     745 C           32.9207     7.8591     5.6891 C             1 Polymer 
     746 C           33.5334     9.2888     5.9632 C             1 Polymer 
     747 C           35.0944     9.4187     6.1724 C             1 Polymer 
     748 C           35.5737    10.8997     6.2971 C             1 Polymer 
     749 C           35.2433    11.8844     5.1724 C             1 Polymer 
     750 C           35.9806    13.2117     5.4633 C             1 Polymer 
     751 C           35.6930    14.2860     4.4261 C             1 Polymer 
     752 C           35.6174     8.6683     7.4252 C             1 Polymer 
     753 C           37.1631     8.6855     7.5905 C             1 Polymer 
     754 C           37.6059     7.9058     8.8305 C             1 Polymer 
     755 C           39.1153     7.8820     9.0653 C             1 Polymer 
     756 C           39.9201     7.3221     7.8964 C             1 Polymer 
     757 C           39.5633     5.8864     7.5239 C             1 Polymer 
     758 H           29.9042     2.2423     2.3591 H             1 Polymer 
     759 H           30.9719     0.9584     2.6471 H             1 Polymer 
     760 H           28.3409     1.7411     3.7731 H             1 Polymer 
     761 H           28.7042     0.2074     3.3716 H             1 Polymer 
     762 H           27.7926     0.5159     5.5702 H             1 Polymer 
     763 H           29.1521    -0.4808     5.6340 H             1 Polymer 
     764 H           30.2600     0.7282     7.3304 H             1 Polymer 
     765 H           28.5607     0.6975     7.6502 H             1 Polymer 
     766 H           28.4763     3.2677     7.1211 H             1 Polymer 
     767 H           29.2050     2.7186     8.5967 H             1 Polymer 
     768 H           31.1853     3.0414     6.3630 H             1 Polymer 
     769 H           31.3888     3.0778     8.0160 H             1 Polymer 
     770 H           30.3231     5.4747     7.9972 H             1 Polymer 
     771 H           29.9682     5.4018     6.3357 H             1 Polymer 
     772 H           32.4472     5.1869     5.7249 H             1 Polymer 
     773 H           32.6907     5.0206     7.4378 H             1 Polymer 
     774 H           31.6596     7.5893     7.4948 H             1 Polymer 
     775 H           33.3298     7.0589     7.6202 H             1 Polymer 
     776 H           33.6455     7.2827     5.0728 H             1 Polymer 
     777 H           31.9972     7.9851     5.0837 H             1 Polymer 
     778 H           33.3471     9.8551     5.0264 H             1 Polymer 
     779 H           32.9642     9.7983     6.7696 H             1 Polymer 
     780 H           35.5798     8.9755     5.2727 H             1 Polymer 
     781 H           36.6786    10.8944     6.3142 H             1 Polymer 
     782 H           35.2002    11.3243     7.2554 H             1 Polymer 
     783 H           34.1484    12.0581     5.1322 H             1 Polymer 
     784 H           35.5936    11.4787     4.1982 H             1 Polymer 
     785 H           35.6802    13.5994     6.4619 H             1 Polymer 
     786 H           37.0800    13.0313     5.4791 H             1 Polymer 
     787 H           36.2625    15.2046     4.6881 H             1 Polymer 
     788 H           34.6105    14.5284     4.4200 H             1 Polymer 
     789 H           36.0104    13.9462     3.4185 H             1 Polymer 
     790 H           35.1457     9.0904     8.3389 H             1 Polymer 
     791 H           35.3196     7.6260     7.3216 H             1 Polymer 
     792 H           37.5614     9.7057     7.7364 H             1 Polymer 
     793 H           37.6086     8.2415     6.6736 H             1 Polymer 
     794 H           37.1211     8.3302     9.7342 H             1 Polymer 
     795 H           37.2971     6.8789     8.7197 H             1 Polymer 
     796 H           39.4746     8.9124     9.2676 H             1 Polymer 
     797 H           39.3212     7.2597     9.9654 H             1 Polymer 
     798 H           39.7900     7.9572     7.0012 H             1 Polymer 
     799 H           40.9703     7.3638     8.2415 H             1 Polymer 
     800 H           40.1326     5.4755     6.6767 H             1 Polymer 
     801 H           38.5138     5.8154     7.1906 H             1 Polymer 
     802 H           39.7979     5.2581     8.3953 H             1 Polymer 
     803 C           27.2138     6.3387     1.1656 C             1 Polymer 
     804 C           27.2133     7.9538     1.1630 C             1 Polymer 
     805 C           26.0541     8.9224     1.7822 C             1 Polymer 
     806 C           26.0277     9.6426     3.2565 C             1 Polymer 
     807 C           25.4625     9.3471     4.7561 C             1 Polymer 
     808 C           26.1031     8.2311     5.6348 C             1 Polymer 
     809 C           26.2525     8.1833     7.1751 C             1 Polymer 
     810 C           27.0606     6.8663     7.5276 C             1 Polymer 
     811 C           27.6171     6.6839     8.9701 C             1 Polymer 
     812 C           28.5418     7.8493     9.3484 C             1 Polymer 
     813 C           29.2275     7.8233    10.7479 C             1 Polymer 
     814 C           30.7701     7.5324    10.7778 C             1 Polymer 
     815 C           31.4842     8.1848    12.0012 C             1 Polymer 
     816 C           31.2702     9.6948    12.1623 C             1 Polymer 
     817 C           32.1836    10.2504    13.2556 C             1 Polymer 
     818 C           31.9110    11.7323    13.4779 C             1 Polymer 
     819 C           31.1375     6.0189    10.7453 C             1 Polymer 
     820 C           32.6591     5.8255    10.5356 C             1 Polymer 
     821 C           33.1008     4.4031    10.1927 C             1 Polymer 
     822 C           34.6287     4.2826    10.1240 C             1 Polymer 
     823 C           35.4212     5.2665     9.2229 C             1 Polymer 
     824 C           35.5702     4.9964     7.7080 C             1 Polymer 
     825 H           27.9936     5.9402     0.4827 H             1 Polymer 
     826 H           26.2721     6.0427     0.7209 H             1 Polymer 
     827 H           28.1984     8.3323     1.4965 H             1 Polymer 
     828 H           27.1485     8.1561     0.0694 H             1 Polymer 
     829 H           26.2259     9.8246     1.1555 H             1 Polymer 
     830 H           25.0481     8.6206     1.4215 H             1 Polymer 
     831 H           27.0651     9.9990     3.4045 H             1 Polymer 
     832 H           25.4097    10.5432     3.0355 H             1 Polymer 
     833 H           25.6683    10.2859     5.3114 H             1 Polymer 
     834 H           24.3537     9.2272     4.7683 H             1 Polymer 
     835 H           27.1622     8.1895     5.3106 H             1 Polymer 
     836 H           25.4352     7.3733     5.4803 H             1 Polymer 
     837 H           25.2698     8.1893     7.6974 H             1 Polymer 
     838 H           26.8277     9.0807     7.4670 H             1 Polymer 
     839 H           27.9558     6.8172     6.8701 H             1 Polymer 
     840 H           26.4342     5.9792     7.2774 H             1 Polymer 
     841 H           26.7827     6.6090     9.6998 H             1 Polymer 
     842 H           28.1883     5.7302     9.0056 H             1 Polymer 
     843 H           29.2968     8.0472     8.5567 H             1 Polymer 
     844 H           27.8523     8.7196     9.3599 H             1 Polymer 
     845 H           29.1576     8.8920    10.9941 H             1 Polymer 
     846 H           28.6410     7.3060    11.5349 H             1 Polymer 
     847 H           31.1908     8.0306     9.8761 H             1 Polymer 
     848 H           32.5768     8.0708    11.8608 H             1 Polymer 
     849 H           31.1851     7.6673    12.9360 H             1 Polymer 
     850 H           30.2245     9.9007    12.4637 H             1 Polymer 
     851 H           31.4965    10.2109    11.2021 H             1 Polymer 
     852 H           32.0023     9.7055    14.2075 H             1 Polymer 
     853 H           33.2474    10.1119    12.9607 H             1 Polymer 
     854 H           32.5828    12.1172    14.2720 H             1 Polymer 
     855 H           30.8570    11.8779    13.7989 H             1 Polymer 
     856 H           32.0897    12.3024    12.5416 H             1 Polymer 
     857 H           30.8115     5.4996    11.6696 H             1 Polymer 
     858 H           30.5936     5.5344     9.9443 H             1 Polymer 
     859 H           33.2051     6.1174    11.4530 H             1 Polymer 
     860 H           32.9664     6.4811     9.7046 H             1 Polymer 
     861 H           32.7371     3.6996    10.9709 H             1 Polymer 
     862 H           32.6703     4.0863     9.2560 H             1 Polymer 
     863 H           34.9770     4.4802    11.1606 H             1 Polymer 
     864 H           34.8935     3.2360     9.8889 H             1 Polymer 
     865 H           35.1014     6.3100     9.3958 H             1 Polymer 
     866 H           36.4403     5.2007     9.6208 H             1 Polymer 
     867 H           36.0609     4.0453     7.5216 H             1 Polymer 
     868 H           34.6635     5.0418     7.1164 H             1 Polymer 
     869 H           36.2499     5.7164     7.2257 H             1 Polymer 
     870 C           26.3701     6.4209     3.3781 C             1 Polymer 
     871 C           24.8055     6.4377     2.9155 C             1 Polymer 
     872 C           23.8762     5.5413     1.9239 C             1 Polymer 
     873 C           24.0569     4.9670     0.4266 C             1 Polymer 
     874 C           24.3396     3.4237     0.0558 C             1 Polymer 
     875 C           25.7505     2.8281    -0.3328 C             1 Polymer 
     876 C           25.7143     1.2943    -0.8206 C             1 Polymer 
     877 C           27.0626     0.8011    -1.4879 C             1 Polymer 
     878 C           27.2647    -0.6713    -2.1374 C             1 Polymer 
     879 C           28.4489    -1.4833    -1.4762 C             1 Polymer 
     880 C           29.2757    -2.7323    -2.0528 C             1 Polymer 
     881 C           30.6552    -3.1407    -1.2745 C             1 Polymer 
     882 C           31.1473    -4.5998    -1.5232 C             1 Polymer 
     883 C           30.6993    -5.5582    -0.3961 C             1 Polymer 
     884 C           31.5761    -6.8204    -0.3372 C             1 Polymer 
     885 C           31.2287    -7.6765     0.8788 C             1 Polymer 
     886 C           31.9137    -2.1827    -1.4468 C             1 Polymer 
     887 C           33.1839    -2.4710    -0.5452 C             1 Polymer 
     888 C           33.9765    -1.2139    -0.0266 C             1 Polymer 
     889 C           35.4152    -1.0224    -0.4875 C             1 Polymer 
     890 C           36.1305     0.1379     0.2363 C             1 Polymer 
     891 C           35.5064     1.5381     0.1078 C             1 Polymer 
     892 H           26.4553     6.0979     4.4284 H             1 Polymer 
     893 H           26.8202     7.3853     3.4589 H             1 Polymer 
     894 H           24.4021     7.4557     2.9887 H             1 Polymer 
     895 H           24.3092     6.2041     3.8817 H             1 Polymer 
     896 H           23.3442     4.7576     2.5035 H             1 Polymer 
     897 H           23.0273     6.2558     1.8121 H             1 Polymer 
     898 H           24.4809     5.6834    -0.3024 H             1 Polymer 
     899 H           22.9819     4.9863     0.1285 H             1 Polymer 
     900 H           23.8677     2.7876     0.8215 H             1 Polymer 
     901 H           23.7605     3.2560    -0.8787 H             1 Polymer 
     902 H           26.4635     2.9275     0.5104 H             1 Polymer 
     903 H           26.1242     3.4460    -1.1756 H             1 Polymer 
     904 H           24.9174     1.1839    -1.5856 H             1 Polymer 
     905 H           25.4535     0.6430     0.0423 H             1 Polymer 
     906 H           27.8717     0.9940    -0.7595 H             1 Polymer 
     907 H           27.2236     1.5181    -2.3227 H             1 Polymer 
     908 H           26.3154    -1.2374    -2.2392 H             1 Polymer 
     909 H           27.6200    -0.4891    -3.1774 H             1 Polymer 
     910 H           29.1819    -0.7126    -1.4952 H             1 Polymer 
     911 H           28.1062    -1.7430    -0.4506 H             1 Polymer 
     912 H           28.5844    -3.6001    -2.0206 H             1 Polymer 
     913 H           29.5400    -2.5489    -3.1160 H             1 Polymer 
     914 H           30.4228    -3.0967    -0.1958 H             1 Polymer 
     915 H           32.2478    -4.6211    -1.4321 H             1 Polymer 
     916 H           30.9562    -4.9592    -2.5547 H             1 Polymer 
     917 H           29.6205    -5.7961    -0.4947 H             1 Polymer 
     918 H           30.8622    -5.0550     0.5850 H             1 Polymer 
     919 H           31.4690    -7.4112    -1.2694 H             1 Polymer 
     920 H           32.6443    -6.5203    -0.2264 H             1 Polymer 
     921 H           31.9057    -8.5556     0.9222 H             1 Polymer 
     922 H           30.1783    -8.0257     0.8178 H             1 Polymer 
     923 H           31.3652    -7.0910     1.8157 H             1 Polymer 
     924 H           32.2221    -2.0877    -2.5056 H             1 Polymer 
     925 H           31.5784    -1.2477    -1.0932 H             1 Polymer 
     926 H           33.8701    -3.2416    -0.9441 H             1 Polymer 
     927 H           32.7965    -2.9477     0.3738 H             1 Polymer 
     928 H           33.4976    -0.3046    -0.3580 H             1 Polymer 
     929 H           34.0032    -1.2499     1.0859 H             1 Polymer 
     930 H           35.9943    -1.9452    -0.2935 H             1 Polymer 
     931 H           35.4251    -0.8075    -1.5452 H             1 Polymer 
     932 H           36.1717    -0.1321     1.3034 H             1 Polymer 
     933 H           37.1640     0.1890    -0.1561 H             1 Polymer 
     934 H           35.4340     1.8712    -0.9362 H             1 Polymer 
     935 H           34.5023     1.5853     0.5723 H             1 Polymer 
     936 H           36.1509     2.2829     0.6199 H             1 Polymer 
     937 C           42.8232     6.9839     6.3736 C             1 Polymer 
     938 C           42.3856     8.3421     5.6072 C             1 Polymer 
     939 C           43.4667     9.4854     5.4134 C             1 Polymer 
     940 C           44.3159     9.7269     4.0811 C             1 Polymer 
     941 C           45.1395     8.7818     3.0559 C             1 Polymer 
     942 C           44.3399     7.7293     2.1383 C             1 Polymer 
     943 C           44.8841     7.0765     0.7757 C             1 Polymer 
     944 C           43.7886     6.2213     0.0489 C             1 Polymer 
     945 C           43.5506     6.3741    -1.5072 C             1 Polymer 
     946 C           43.1534     7.8065    -1.9498 C             1 Polymer 
     947 C           42.5094     8.0562    -3.3587 C             1 Polymer 
     948 C           40.9538     8.3184    -3.3627 C             1 Polymer 
     949 C           40.4449     9.0656    -4.6359 C             1 Polymer 
     950 C           40.9443    10.5294    -4.7153 C             1 Polymer 
     951 C           40.2112    11.3252    -5.8059 C             1 Polymer 
     952 C           40.6547    12.7882    -5.8127 C             1 Polymer 
     953 C           40.1234     7.0308    -3.0433 C             1 Polymer 
     954 C           38.5863     7.2752    -2.9213 C             1 Polymer 
     955 C           37.8098     6.0256    -2.4637 C             1 Polymer 
     956 C           36.2731     6.1575    -2.6253 C             1 Polymer 
     957 C           35.5757     7.2572    -1.8017 C             1 Polymer 
     958 C           35.5706     6.9681    -0.3069 C             1 Polymer 
     959 H           41.9534     6.4300     6.6684 H             1 Polymer 
     960 H           43.2284     7.3575     7.2824 H             1 Polymer 
     961 H           41.8309     8.1980     4.6602 H             1 Polymer 
     962 H           41.6752     8.8078     6.3179 H             1 Polymer 
     963 H           42.9134    10.4481     5.5191 H             1 Polymer 
     964 H           44.0930     9.5319     6.3088 H             1 Polymer 
     965 H           43.6270    10.2853     3.4834 H             1 Polymer 
     966 H           45.0520    10.5046     4.3980 H             1 Polymer 
     967 H           45.5394     9.5355     2.4493 H             1 Polymer 
     968 H           46.0536     8.3364     3.4956 H             1 Polymer 
     969 H           43.4637     8.2866     1.9065 H             1 Polymer 
     970 H           43.9787     6.8576     2.6993 H             1 Polymer 
     971 H           45.7813     6.4518     0.9645 H             1 Polymer 
     972 H           45.2297     7.7689     0.0001 H             1 Polymer 
     973 H           42.8112     6.4423     0.5128 H             1 Polymer 
     974 H           44.0016     5.1555     0.2789 H             1 Polymer 
     975 H           44.4438     6.0540    -2.0905 H             1 Polymer 
     976 H           42.7180     5.6883    -1.7606 H             1 Polymer 
     977 H           42.4745     8.2473    -1.2077 H             1 Polymer 
     978 H           44.1128     8.3660    -1.9315 H             1 Polymer 
     979 H           42.9448     9.0269    -3.6645 H             1 Polymer 
     980 H           42.8463     7.3235    -4.1222 H             1 Polymer 
     981 H           40.7596     9.0603    -2.5809 H             1 Polymer 
     982 H           39.3477     9.1792    -4.5561 H             1 Polymer 
     983 H           40.6676     8.4977    -5.5627 H             1 Polymer 
     984 H           42.0349    10.5693    -4.9047 H             1 Polymer 
     985 H           40.7309    11.0324    -3.7441 H             1 Polymer 
     986 H           40.4103    10.8733    -6.8001 H             1 Polymer 
     987 H           39.1148    11.3013    -5.6149 H             1 Polymer 
     988 H           40.1054    13.3430    -6.6026 H             1 Polymer 
     989 H           41.7438    12.8624    -6.0143 H             1 Polymer 
     990 H           40.4332    13.2652    -4.8328 H             1 Polymer 
     991 H           40.3030     6.2677    -3.8312 H             1 Polymer 
     992 H           40.4821     6.6191    -2.0771 H             1 Polymer 
     993 H           38.1849     7.5497    -3.9164 H             1 Polymer 
     994 H           38.3844     8.1011    -2.2088 H             1 Polymer 
     995 H           38.1160     5.1907    -3.1215 H             1 Polymer 
     996 H           38.0808     5.7558    -1.4227 H             1 Polymer 
     997 H           36.0649     6.3610    -3.6974 H             1 Polymer 
     998 H           35.7996     5.1813    -2.3771 H             1 Polymer 
     999 H           36.0337     8.2478    -2.0034 H             1 Polymer 
    1000 H           34.5112     7.3055    -2.1211 H             1 Polymer 
    1001 H           35.0590     6.0049    -0.1077 H             1 Polymer 
    1002 H           36.5981     6.9080     0.0731 H             1 Polymer 
    1003 H           35.0317     7.7773     0.2329 H             1 Polymer 
    1004 C           44.8549     6.8459     5.1655 C             1 Polymer 
    1005 C           45.7278     7.6471     6.2507 C             1 Polymer 
    1006 C           45.5248     7.8115     7.8682 C             1 Polymer 
    1007 C           44.8132     6.9505     9.0684 C             1 Polymer 
    1008 C           44.7310     5.3704     9.3296 C             1 Polymer 
    1009 C           43.4552     4.6494     8.7547 C             1 Polymer 
    1010 C           43.4491     3.0909     8.4996 C             1 Polymer 
    1011 C           41.9982     2.6305     8.1370 C             1 Polymer 
    1012 C           41.5662     1.1246     8.2195 C             1 Polymer 
    1013 C           41.4114     0.3404     6.8922 C             1 Polymer 
    1014 C           40.7396    -1.0816     7.0405 C             1 Polymer 
    1015 C           39.1629    -1.2192     6.9620 C             1 Polymer 
    1016 C           38.6962    -2.7094     6.9837 C             1 Polymer 
    1017 C           39.2535    -3.6881     5.9480 C             1 Polymer 
    1018 C           38.4765    -5.0184     6.0834 C             1 Polymer 
    1019 C           38.9602    -6.0868     5.1166 C             1 Polymer 
    1020 C           38.3751    -0.4824     8.0922 C             1 Polymer 
    1021 C           36.8251    -0.5732     7.9401 C             1 Polymer 
    1022 C           36.0310     0.1646     9.0308 C             1 Polymer 
    1023 C           34.5022     0.1285     8.7979 C             1 Polymer 
    1024 C           34.0556     0.6561     7.4213 C             1 Polymer 
    1025 C           34.6083     2.0485     7.1433 C             1 Polymer 
    1026 H           45.5271     6.3981     4.3905 H             1 Polymer 
    1027 H           44.2613     7.4396     4.6040 H             1 Polymer 
    1028 H           46.0788     8.6118     5.8326 H             1 Polymer 
    1029 H           46.7004     7.1801     6.1072 H             1 Polymer 
    1030 H           46.5841     7.8994     8.1992 H             1 Polymer 
    1031 H           45.1601     8.8434     8.0393 H             1 Polymer 
    1032 H           43.7921     7.3411     9.2568 H             1 Polymer 
    1033 H           45.3527     7.3412     9.9594 H             1 Polymer 
    1034 H           45.6845     4.8436     9.1553 H             1 Polymer 
    1035 H           44.6186     5.2268    10.4261 H             1 Polymer 
    1036 H           43.1735     5.0574     7.8172 H             1 Polymer 
    1037 H           42.6204     4.9464     9.4226 H             1 Polymer 
    1038 H           43.7716     2.5749     9.4083 H             1 Polymer 
    1039 H           44.1592     2.7997     7.7011 H             1 Polymer 
    1040 H           41.6013     3.1196     7.2192 H             1 Polymer 
    1041 H           41.4508     3.0639     8.9710 H             1 Polymer 
    1042 H           42.1986     0.5786     8.9463 H             1 Polymer 
    1043 H           40.5585     1.1285     8.6510 H             1 Polymer 
    1044 H           40.8402     0.9205     6.1341 H             1 Polymer 
    1045 H           42.4451     0.2083     6.5063 H             1 Polymer 
    1046 H           41.0962    -1.6429     6.1511 H             1 Polymer 
    1047 H           41.1476    -1.5982     7.9350 H             1 Polymer 
    1048 H           38.8539    -0.7815     5.9861 H             1 Polymer 
    1049 H           37.6140    -2.7213     6.7687 H             1 Polymer 
    1050 H           38.8731    -3.1317     7.9979 H             1 Polymer 
    1051 H           40.3350    -3.8571     6.1282 H             1 Polymer 
    1052 H           39.1031    -3.2807     4.9245 H             1 Polymer 
    1053 H           38.5756    -5.4100     7.1201 H             1 Polymer 
    1054 H           37.3946    -4.8398     5.8843 H             1 Polymer 
    1055 H           38.3494    -7.0054     5.2579 H             1 Polymer 
    1056 H           40.0230    -6.3304     5.3198 H             1 Polymer 
    1057 H           38.8438    -5.7403     4.0689 H             1 Polymer 
    1058 H           38.6723    -0.8787     9.0865 H             1 Polymer 
    1059 H           38.6400     0.5743     8.0305 H             1 Polymer 
    1060 H           36.4532    -1.6104     8.0078 H             1 Polymer 
    1061 H           36.5853    -0.1619     6.9381 H             1 Polymer 
    1062 H           36.2541    -0.2761    10.0247 H             1 Polymer 
    1063 H           36.3303     1.2130     9.0785 H             1 Polymer 
    1064 H           34.1259    -0.9108     8.9027 H             1 Polymer 
    1065 H           34.0227     0.7470     9.5893 H             1 Polymer 
    1066 H           34.3989    -0.0287     6.6209 H             1 Polymer 
    1067 H           32.9450     0.6767     7.4027 H             1 Polymer 
    1068 H           34.1923     2.7360     7.8924 H             1 Polymer 
    1069 H           35.7075     2.0028     7.1435 H             1 Polymer 
    1070 H           34.3968     2.5011     6.1642 H             1 Polymer 
    1071 C           48.6023     2.0909     3.7018 C             1 Polymer 
    1072 C           48.1714     0.5382     3.8475 C             1 Polymer 
    1073 C           49.0128    -0.6485     4.5750 C             1 Polymer 
    1074 C           49.0827    -0.8595     6.1583 C             1 Polymer 
    1075 C           48.6773    -1.0199     7.6851 C             1 Polymer 
    1076 C           48.1587     0.3321     8.2956 C             1 Polymer 
    1077 C           47.4951     0.3194     9.6801 C             1 Polymer 
    1078 C           46.7472     1.6789     9.9072 C             1 Polymer 
    1079 C           45.8672     1.7879    11.1810 C             1 Polymer 
    1080 C           44.9230     0.5862    11.2943 C             1 Polymer 
    1081 C           43.9536     0.5553    12.4953 C             1 Polymer 
    1082 C           42.4528     0.8580    12.1924 C             1 Polymer 
    1083 C           41.5116     0.2268    13.2694 C             1 Polymer 
    1084 C           41.6924    -1.2808    13.5019 C             1 Polymer 
    1085 C           40.5771    -1.8324    14.3920 C             1 Polymer 
    1086 C           40.7963    -3.3151    14.6655 C             1 Polymer 
    1087 C           42.1310     2.3787    12.0137 C             1 Polymer 
    1088 C           40.6367     2.5757    11.6913 C             1 Polymer 
    1089 C           40.1629     3.9836    11.3227 C             1 Polymer 
    1090 C           38.6253     3.9993    11.2183 C             1 Polymer 
    1091 C           37.9979     2.9356    10.2878 C             1 Polymer 
    1092 C           38.2963     3.1577     8.8133 C             1 Polymer 
    1093 H           47.9823     2.5648     2.9068 H             1 Polymer 
    1094 H           49.5819     2.0128     3.3018 H             1 Polymer 
    1095 H           47.1266     0.4696     4.2011 H             1 Polymer 
    1096 H           48.1560     0.1967     2.7885 H             1 Polymer 
    1097 H           48.5397    -1.5862     4.2028 H             1 Polymer 
    1098 H           50.0474    -0.6646     4.1630 H             1 Polymer 
    1099 H           48.0132    -0.5942     6.0483 H             1 Polymer 
    1100 H           49.9564    -0.2142     6.3556 H             1 Polymer 
    1101 H           47.8945    -1.8049     7.7906 H             1 Polymer 
    1102 H           49.5553    -1.3565     8.2841 H             1 Polymer 
    1103 H           47.3693     0.7050     7.6090 H             1 Polymer 
    1104 H           48.9980     1.0473     8.3554 H             1 Polymer 
    1105 H           48.2384     0.1225    10.4837 H             1 Polymer 
    1106 H           46.7559    -0.5027     9.6524 H             1 Polymer 
    1107 H           46.0614     1.8274     9.0463 H             1 Polymer 
    1108 H           47.4721     2.5234     9.8984 H             1 Polymer 
    1109 H           46.5119     1.8249    12.0853 H             1 Polymer 
    1110 H           45.2926     2.7381    11.1365 H             1 Polymer 
    1111 H           44.3752     0.3830    10.3487 H             1 Polymer 
    1112 H           45.6187    -0.2646    11.4592 H             1 Polymer 
    1113 H           43.9705    -0.5219    12.7194 H             1 Polymer 
    1114 H           44.3492     1.0581    13.4027 H             1 Polymer 
    1115 H           42.2054     0.3303    11.2454 H             1 Polymer 
    1116 H           40.4684     0.3114    12.9078 H             1 Polymer 
    1117 H           41.6124     0.7685    14.2338 H             1 Polymer 
    1118 H           42.6551    -1.4772    14.0145 H             1 Polymer 
    1119 H           41.6681    -1.8124    12.5240 H             1 Polymer 
    1120 H           40.5642    -1.2838    15.3584 H             1 Polymer 
    1121 H           39.5941    -1.6955    13.8887 H             1 Polymer 
    1122 H           39.9790    -3.6984    15.3100 H             1 Polymer 
    1123 H           41.7654    -3.4648    15.1883 H             1 Polymer 
    1124 H           40.8043    -3.8862    13.7125 H             1 Polymer 
    1125 H           42.3855     2.9504    12.9303 H             1 Polymer 
    1126 H           42.7301     2.7907    11.1945 H             1 Polymer 
    1127 H           40.0452     2.3049    12.5860 H             1 Polymer 
    1128 H           40.3973     1.8964    10.8508 H             1 Polymer 
    1129 H           40.4610     4.7062    12.1104 H             1 Polymer 
    1130 H           40.6060     4.3359    10.3811 H             1 Polymer 
    1131 H           38.2179     3.8075    12.2337 H             1 Polymer 
    1132 H           38.2953     5.0157    10.9173 H             1 Polymer 
    1133 H           38.2645     1.9006    10.5797 H             1 Polymer 
    1134 H           36.9168     3.0001    10.4309 H             1 Polymer 
    1135 H           37.9788     4.1571     8.5372 H             1 Polymer 
    1136 H           39.3558     3.0347     8.5871 H             1 Polymer 
    1137 H           37.7384     2.4858     8.1484 H             1 Polymer 
    1138 C           49.3405     2.2927     5.9982 C             1 Polymer 
    1139 C           50.9108     2.3079     5.7786 C             1 Polymer 
    1140 C           51.7395     2.3884     4.3965 C             1 Polymer 
    1141 C           51.7029     3.2276     2.9777 C             1 Polymer 
    1142 C           51.5771     4.7889     2.5568 C             1 Polymer 
    1143 C           50.1577     5.3664     2.1076 C             1 Polymer 
    1144 C           50.1154     6.8935     1.6051 C             1 Polymer 
    1145 C           48.7604     7.3069     0.8778 C             1 Polymer 
    1146 C           48.4786     8.7540     0.1809 C             1 Polymer 
    1147 C           47.2843     9.6141     0.7929 C             1 Polymer 
    1148 C           46.4345    10.7594    -0.0066 C             1 Polymer 
    1149 C           44.9207    11.2051     0.4818 C             1 Polymer 
    1150 C           44.5130    12.6912     0.2162 C             1 Polymer 
    1151 C           44.7469    13.6261     1.4322 C             1 Polymer 
    1152 C           43.8830    14.8993     1.3276 C             1 Polymer 
    1153 C           43.9981    15.7757     2.5731 C             1 Polymer 
    1154 C           43.6923    10.3090    -0.0158 C             1 Polymer 
    1155 C           42.3552    10.4791     0.8141 C             1 Polymer 
    1156 C           41.2866     9.3412     1.0055 C             1 Polymer 
    1157 C           40.0976     9.3003     0.0497 C             1 Polymer 
    1158 C           38.7999     8.8834     0.7576 C             1 Polymer 
    1159 C           38.8636     7.4714     1.3183 C             1 Polymer 
    1160 H           49.1608     2.6634     7.0377 H             1 Polymer 
    1161 H           48.8239     1.3960     6.0462 H             1 Polymer 
    1162 H           51.2430     3.1426     6.3962 H             1 Polymer 
    1163 H           51.3415     1.5027     6.4055 H             1 Polymer 
    1164 H           52.7541     2.6087     4.8009 H             1 Polymer 
    1165 H           51.7884     1.3282     4.0693 H             1 Polymer 
    1166 H           51.1272     2.6798     2.2114 H             1 Polymer 
    1167 H           52.7365     2.9914     2.6367 H             1 Polymer 
    1168 H           52.1209     5.4566     3.2535 H             1 Polymer 
    1169 H           52.1654     4.8726     1.6207 H             1 Polymer 
    1170 H           49.4076     5.2490     2.9085 H             1 Polymer 
    1171 H           49.8279     4.7218     1.2638 H             1 Polymer 
    1172 H           50.9420     7.0404     0.8761 H             1 Polymer 
    1173 H           50.3051     7.5581     2.4782 H             1 Polymer 
    1174 H           47.9131     7.0467     1.5412 H             1 Polymer 
    1175 H           48.7131     6.5756     0.0401 H             1 Polymer 
    1176 H           49.4070     9.3240    -0.0290 H             1 Polymer 
    1177 H           48.0708     8.4891    -0.8205 H             1 Polymer 
    1178 H           46.6112     8.8182     0.9480 H             1 Polymer 
    1179 H           47.6009    10.0035     1.7856 H             1 Polymer 
    1180 H           47.0828    11.6588     0.0289 H             1 Polymer 
    1181 H           46.3343    10.4681    -1.0717 H             1 Polymer 
    1182 H           44.9068    11.1611     1.5694 H             1 Polymer 
    1183 H           43.4145    12.7288     0.1096 H             1 Polymer 
    1184 H           44.8877    13.0769    -0.7515 H             1 Polymer 
    1185 H           45.8258    13.8562     1.5446 H             1 Polymer 
    1186 H           44.3971    13.1152     2.3600 H             1 Polymer 
    1187 H           44.1654    15.4810     0.4270 H             1 Polymer 
    1188 H           42.8101    14.6078     1.2394 H             1 Polymer 
    1189 H           43.3297    16.6575     2.4673 H             1 Polymer 
    1190 H           45.0413    16.1262     2.7054 H             1 Polymer 
    1191 H           43.6806    15.2116     3.4780 H             1 Polymer 
    1192 H           43.4964    10.4428    -1.0987 H             1 Polymer 
    1193 H           43.9887     9.3114     0.1418 H             1 Polymer 
    1194 H           41.8269    11.4342     0.6467 H             1 Polymer 
    1195 H           42.7205    10.5809     1.8111 H             1 Polymer 
    1196 H           41.6505     8.3063     1.1093 H             1 Polymer 
    1197 H           40.8517     9.5735     2.0033 H             1 Polymer 
    1198 H           39.9270    10.3045    -0.3830 H             1 Polymer 
    1199 H           40.2908     8.5431    -0.7114 H             1 Polymer 
    1200 H           38.5952     9.5962     1.5862 H             1 Polymer 
    1201 H           37.9520     8.9410     0.0449 H             1 Polymer 
    1202 H           38.9749     6.7199     0.5120 H             1 Polymer 
    1203 H           39.7190     7.3647     2.0106 H             1 Polymer 
    1204 H           37.9185     7.2798     1.8658 H             1 Polymer 
    1205 H           -5.1151    -2.5567     0.1343 H             1 Polymer 
    1206 H           55.1433     8.4648     7.4623 H             1 Polymer 
@<TRIPOS>BOND
       1        2        1 1
       2        9        1 1
       3       67        1 1
       4      134        1 1
       5        3        2 1
       6       18        2 1
       7        4        3 1
       8       16        3 1
       9        5        4 1
      10        9        4 1
      11        6        5 1
      12       19        5 1
      13        7        6 1
      14       12        6 1
      15        8        7 1
      16       10        7 1
      17        9        8 1
      18       20        8 1
      19       11       10 1
      20       15       10 1
      21       12       11 1
      22       13       11 1
      23      201       12 1
      24      268       12 1
      25       14       13 1
      26       21       13 1
      27       15       14 1
      28     1205       14 1
      29       17       16 1
      30       18       17 1
      31       26       17 1
      32       22       18 1
      33       24       23 1
      34       25       23 1
      35       32       23 1
      36       26       25 1
      37       33       25 1
      38       27       26 1
      39       28       27 1
      40       31       27 1
      41       29       28 1
      42       30       29 1
      43       31       30 1
      44       32       31 1
      45       50       32 1
      46       35       34 1
      47       42       34 1
      48      335       34 1
      49      402       34 1
      50       36       35 1
      51       51       35 1
      52       37       36 1
      53       49       36 1
      54       38       37 1
      55       42       37 1
      56       39       38 1
      57       52       38 1
      58       40       39 1
      59       45       39 1
      60       41       40 1
      61       43       40 1
      62       42       41 1
      63       53       41 1
      64       44       43 1
      65       48       43 1
      66       45       44 1
      67       46       44 1
      68      469       45 1
      69      536       45 1
      70       47       46 1
      71       54       46 1
      72       48       47 1
      73       65       47 1
      74       50       49 1
      75       51       50 1
      76       55       51 1
      77       57       56 1
      78       58       56 1
      79       65       56 1
      80       59       58 1
      81       66       58 1
      82       60       59 1
      83      616       59 1
      84       61       60 1
      85       64       60 1
      86       62       61 1
      87       63       62 1
      88       64       63 1
      89       65       64 1
      90       68       67 1
      91       89       67 1
      92       90       67 1
      93       69       68 1
      94       91       68 1
      95       92       68 1
      96       70       69 1
      97       93       69 1
      98       94       69 1
      99       71       70 1
     100       95       70 1
     101       96       70 1
     102       72       71 1
     103       97       71 1
     104       98       71 1
     105       73       72 1
     106       99       72 1
     107      100       72 1
     108       74       73 1
     109      101       73 1
     110      102       73 1
     111       75       74 1
     112      103       74 1
     113      104       74 1
     114       76       75 1
     115      105       75 1
     116      106       75 1
     117       77       76 1
     118      107       76 1
     119      108       76 1
     120       78       77 1
     121      109       77 1
     122      110       77 1
     123       79       78 1
     124       83       78 1
     125      111       78 1
     126       80       79 1
     127      112       79 1
     128      113       79 1
     129       81       80 1
     130      114       80 1
     131      115       80 1
     132       82       81 1
     133      116       81 1
     134      117       81 1
     135      118       82 1
     136      119       82 1
     137      120       82 1
     138       84       83 1
     139      121       83 1
     140      122       83 1
     141       85       84 1
     142      123       84 1
     143      124       84 1
     144       86       85 1
     145      125       85 1
     146      126       85 1
     147       87       86 1
     148      127       86 1
     149      128       86 1
     150       88       87 1
     151      129       87 1
     152      130       87 1
     153      131       88 1
     154      132       88 1
     155      133       88 1
     156      135      134 1
     157      156      134 1
     158      157      134 1
     159      136      135 1
     160      158      135 1
     161      159      135 1
     162      137      136 1
     163      160      136 1
     164      161      136 1
     165      138      137 1
     166      162      137 1
     167      163      137 1
     168      139      138 1
     169      164      138 1
     170      165      138 1
     171      140      139 1
     172      166      139 1
     173      167      139 1
     174      141      140 1
     175      168      140 1
     176      169      140 1
     177      142      141 1
     178      170      141 1
     179      171      141 1
     180      143      142 1
     181      172      142 1
     182      173      142 1
     183      144      143 1
     184      174      143 1
     185      175      143 1
     186      145      144 1
     187      176      144 1
     188      177      144 1
     189      146      145 1
     190      150      145 1
     191      178      145 1
     192      147      146 1
     193      179      146 1
     194      180      146 1
     195      148      147 1
     196      181      147 1
     197      182      147 1
     198      149      148 1
     199      183      148 1
     200      184      148 1
     201      185      149 1
     202      186      149 1
     203      187      149 1
     204      151      150 1
     205      188      150 1
     206      189      150 1
     207      152      151 1
     208      190      151 1
     209      191      151 1
     210      153      152 1
     211      192      152 1
     212      193      152 1
     213      154      153 1
     214      194      153 1
     215      195      153 1
     216      155      154 1
     217      196      154 1
     218      197      154 1
     219      198      155 1
     220      199      155 1
     221      200      155 1
     222      202      201 1
     223      223      201 1
     224      224      201 1
     225      203      202 1
     226      225      202 1
     227      226      202 1
     228      204      203 1
     229      227      203 1
     230      228      203 1
     231      205      204 1
     232      229      204 1
     233      230      204 1
     234      206      205 1
     235      231      205 1
     236      232      205 1
     237      207      206 1
     238      233      206 1
     239      234      206 1
     240      208      207 1
     241      235      207 1
     242      236      207 1
     243      209      208 1
     244      237      208 1
     245      238      208 1
     246      210      209 1
     247      239      209 1
     248      240      209 1
     249      211      210 1
     250      241      210 1
     251      242      210 1
     252      212      211 1
     253      243      211 1
     254      244      211 1
     255      213      212 1
     256      217      212 1
     257      245      212 1
     258      214      213 1
     259      246      213 1
     260      247      213 1
     261      215      214 1
     262      248      214 1
     263      249      214 1
     264      216      215 1
     265      250      215 1
     266      251      215 1
     267      252      216 1
     268      253      216 1
     269      254      216 1
     270      218      217 1
     271      255      217 1
     272      256      217 1
     273      219      218 1
     274      257      218 1
     275      258      218 1
     276      220      219 1
     277      259      219 1
     278      260      219 1
     279      221      220 1
     280      261      220 1
     281      262      220 1
     282      222      221 1
     283      263      221 1
     284      264      221 1
     285      265      222 1
     286      266      222 1
     287      267      222 1
     288      269      268 1
     289      290      268 1
     290      291      268 1
     291      270      269 1
     292      292      269 1
     293      293      269 1
     294      271      270 1
     295      294      270 1
     296      295      270 1
     297      272      271 1
     298      296      271 1
     299      297      271 1
     300      273      272 1
     301      298      272 1
     302      299      272 1
     303      274      273 1
     304      300      273 1
     305      301      273 1
     306      275      274 1
     307      302      274 1
     308      303      274 1
     309      276      275 1
     310      304      275 1
     311      305      275 1
     312      277      276 1
     313      306      276 1
     314      307      276 1
     315      278      277 1
     316      308      277 1
     317      309      277 1
     318      279      278 1
     319      310      278 1
     320      311      278 1
     321      280      279 1
     322      284      279 1
     323      312      279 1
     324      281      280 1
     325      313      280 1
     326      314      280 1
     327      282      281 1
     328      315      281 1
     329      316      281 1
     330      283      282 1
     331      317      282 1
     332      318      282 1
     333      319      283 1
     334      320      283 1
     335      321      283 1
     336      285      284 1
     337      322      284 1
     338      323      284 1
     339      286      285 1
     340      324      285 1
     341      325      285 1
     342      287      286 1
     343      326      286 1
     344      327      286 1
     345      288      287 1
     346      328      287 1
     347      329      287 1
     348      289      288 1
     349      330      288 1
     350      331      288 1
     351      332      289 1
     352      333      289 1
     353      334      289 1
     354      336      335 1
     355      357      335 1
     356      358      335 1
     357      337      336 1
     358      359      336 1
     359      360      336 1
     360      338      337 1
     361      361      337 1
     362      362      337 1
     363      339      338 1
     364      363      338 1
     365      364      338 1
     366      340      339 1
     367      365      339 1
     368      366      339 1
     369      341      340 1
     370      367      340 1
     371      368      340 1
     372      342      341 1
     373      369      341 1
     374      370      341 1
     375      343      342 1
     376      371      342 1
     377      372      342 1
     378      344      343 1
     379      373      343 1
     380      374      343 1
     381      345      344 1
     382      375      344 1
     383      376      344 1
     384      346      345 1
     385      377      345 1
     386      378      345 1
     387      347      346 1
     388      351      346 1
     389      379      346 1
     390      348      347 1
     391      380      347 1
     392      381      347 1
     393      349      348 1
     394      382      348 1
     395      383      348 1
     396      350      349 1
     397      384      349 1
     398      385      349 1
     399      386      350 1
     400      387      350 1
     401      388      350 1
     402      352      351 1
     403      389      351 1
     404      390      351 1
     405      353      352 1
     406      391      352 1
     407      392      352 1
     408      354      353 1
     409      393      353 1
     410      394      353 1
     411      355      354 1
     412      395      354 1
     413      396      354 1
     414      356      355 1
     415      397      355 1
     416      398      355 1
     417      399      356 1
     418      400      356 1
     419      401      356 1
     420      403      402 1
     421      424      402 1
     422      425      402 1
     423      404      403 1
     424      426      403 1
     425      427      403 1
     426      405      404 1
     427      428      404 1
     428      429      404 1
     429      406      405 1
     430      430      405 1
     431      431      405 1
     432      407      406 1
     433      432      406 1
     434      433      406 1
     435      408      407 1
     436      434      407 1
     437      435      407 1
     438      409      408 1
     439      436      408 1
     440      437      408 1
     441      410      409 1
     442      438      409 1
     443      439      409 1
     444      411      410 1
     445      440      410 1
     446      441      410 1
     447      412      411 1
     448      442      411 1
     449      443      411 1
     450      413      412 1
     451      444      412 1
     452      445      412 1
     453      414      413 1
     454      418      413 1
     455      446      413 1
     456      415      414 1
     457      447      414 1
     458      448      414 1
     459      416      415 1
     460      449      415 1
     461      450      415 1
     462      417      416 1
     463      451      416 1
     464      452      416 1
     465      453      417 1
     466      454      417 1
     467      455      417 1
     468      419      418 1
     469      456      418 1
     470      457      418 1
     471      420      419 1
     472      458      419 1
     473      459      419 1
     474      421      420 1
     475      460      420 1
     476      461      420 1
     477      422      421 1
     478      462      421 1
     479      463      421 1
     480      423      422 1
     481      464      422 1
     482      465      422 1
     483      466      423 1
     484      467      423 1
     485      468      423 1
     486      470      469 1
     487      491      469 1
     488      492      469 1
     489      471      470 1
     490      493      470 1
     491      494      470 1
     492      472      471 1
     493      495      471 1
     494      496      471 1
     495      473      472 1
     496      497      472 1
     497      498      472 1
     498      474      473 1
     499      499      473 1
     500      500      473 1
     501      475      474 1
     502      501      474 1
     503      502      474 1
     504      476      475 1
     505      503      475 1
     506      504      475 1
     507      477      476 1
     508      505      476 1
     509      506      476 1
     510      478      477 1
     511      507      477 1
     512      508      477 1
     513      479      478 1
     514      509      478 1
     515      510      478 1
     516      480      479 1
     517      511      479 1
     518      512      479 1
     519      481      480 1
     520      485      480 1
     521      513      480 1
     522      482      481 1
     523      514      481 1
     524      515      481 1
     525      483      482 1
     526      516      482 1
     527      517      482 1
     528      484      483 1
     529      518      483 1
     530      519      483 1
     531      520      484 1
     532      521      484 1
     533      522      484 1
     534      486      485 1
     535      523      485 1
     536      524      485 1
     537      487      486 1
     538      525      486 1
     539      526      486 1
     540      488      487 1
     541      527      487 1
     542      528      487 1
     543      489      488 1
     544      529      488 1
     545      530      488 1
     546      490      489 1
     547      531      489 1
     548      532      489 1
     549      533      490 1
     550      534      490 1
     551      535      490 1
     552      537      536 1
     553      558      536 1
     554      559      536 1
     555      538      537 1
     556      560      537 1
     557      561      537 1
     558      539      538 1
     559      562      538 1
     560      563      538 1
     561      540      539 1
     562      564      539 1
     563      565      539 1
     564      541      540 1
     565      566      540 1
     566      567      540 1
     567      542      541 1
     568      568      541 1
     569      569      541 1
     570      543      542 1
     571      570      542 1
     572      571      542 1
     573      544      543 1
     574      572      543 1
     575      573      543 1
     576      545      544 1
     577      574      544 1
     578      575      544 1
     579      546      545 1
     580      576      545 1
     581      577      545 1
     582      547      546 1
     583      578      546 1
     584      579      546 1
     585      548      547 1
     586      552      547 1
     587      580      547 1
     588      549      548 1
     589      581      548 1
     590      582      548 1
     591      550      549 1
     592      583      549 1
     593      584      549 1
     594      551      550 1
     595      585      550 1
     596      586      550 1
     597      587      551 1
     598      588      551 1
     599      589      551 1
     600      553      552 1
     601      590      552 1
     602      591      552 1
     603      554      553 1
     604      592      553 1
     605      593      553 1
     606      555      554 1
     607      594      554 1
     608      595      554 1
     609      556      555 1
     610      596      555 1
     611      597      555 1
     612      557      556 1
     613      598      556 1
     614      599      556 1
     615      600      557 1
     616      601      557 1
     617      602      557 1
     618      604      603 1
     619      611      603 1
     620      669      603 1
     621      736      603 1
     622      605      604 1
     623      620      604 1
     624      606      605 1
     625      618      605 1
     626      607      606 1
     627      611      606 1
     628      608      607 1
     629      621      607 1
     630      609      608 1
     631      614      608 1
     632      610      609 1
     633      612      609 1
     634      611      610 1
     635      622      610 1
     636      613      612 1
     637      617      612 1
     638      614      613 1
     639      615      613 1
     640      803      614 1
     641      870      614 1
     642      616      615 1
     643      623      615 1
     644      617      616 1
     645      619      618 1
     646      620      619 1
     647      628      619 1
     648      624      620 1
     649      626      625 1
     650      627      625 1
     651      634      625 1
     652      628      627 1
     653      635      627 1
     654      629      628 1
     655      630      629 1
     656      633      629 1
     657      631      630 1
     658      632      631 1
     659      633      632 1
     660      634      633 1
     661      652      634 1
     662      637      636 1
     663      644      636 1
     664      937      636 1
     665     1004      636 1
     666      638      637 1
     667      653      637 1
     668      639      638 1
     669      651      638 1
     670      640      639 1
     671      644      639 1
     672      641      640 1
     673      654      640 1
     674      642      641 1
     675      647      641 1
     676      643      642 1
     677      645      642 1
     678      644      643 1
     679      655      643 1
     680      646      645 1
     681      650      645 1
     682      647      646 1
     683      648      646 1
     684     1071      647 1
     685     1138      647 1
     686      649      648 1
     687      656      648 1
     688      650      649 1
     689      667      649 1
     690      652      651 1
     691      653      652 1
     692      657      653 1
     693      659      658 1
     694      660      658 1
     695      667      658 1
     696      661      660 1
     697      668      660 1
     698      662      661 1
     699     1206      661 1
     700      663      662 1
     701      666      662 1
     702      664      663 1
     703      665      664 1
     704      666      665 1
     705      667      666 1
     706      670      669 1
     707      691      669 1
     708      692      669 1
     709      671      670 1
     710      693      670 1
     711      694      670 1
     712      672      671 1
     713      695      671 1
     714      696      671 1
     715      673      672 1
     716      697      672 1
     717      698      672 1
     718      674      673 1
     719      699      673 1
     720      700      673 1
     721      675      674 1
     722      701      674 1
     723      702      674 1
     724      676      675 1
     725      703      675 1
     726      704      675 1
     727      677      676 1
     728      705      676 1
     729      706      676 1
     730      678      677 1
     731      707      677 1
     732      708      677 1
     733      679      678 1
     734      709      678 1
     735      710      678 1
     736      680      679 1
     737      711      679 1
     738      712      679 1
     739      681      680 1
     740      685      680 1
     741      713      680 1
     742      682      681 1
     743      714      681 1
     744      715      681 1
     745      683      682 1
     746      716      682 1
     747      717      682 1
     748      684      683 1
     749      718      683 1
     750      719      683 1
     751      720      684 1
     752      721      684 1
     753      722      684 1
     754      686      685 1
     755      723      685 1
     756      724      685 1
     757      687      686 1
     758      725      686 1
     759      726      686 1
     760      688      687 1
     761      727      687 1
     762      728      687 1
     763      689      688 1
     764      729      688 1
     765      730      688 1
     766      690      689 1
     767      731      689 1
     768      732      689 1
     769      733      690 1
     770      734      690 1
     771      735      690 1
     772      737      736 1
     773      758      736 1
     774      759      736 1
     775      738      737 1
     776      760      737 1
     777      761      737 1
     778      739      738 1
     779      762      738 1
     780      763      738 1
     781      740      739 1
     782      764      739 1
     783      765      739 1
     784      741      740 1
     785      766      740 1
     786      767      740 1
     787      742      741 1
     788      768      741 1
     789      769      741 1
     790      743      742 1
     791      770      742 1
     792      771      742 1
     793      744      743 1
     794      772      743 1
     795      773      743 1
     796      745      744 1
     797      774      744 1
     798      775      744 1
     799      746      745 1
     800      776      745 1
     801      777      745 1
     802      747      746 1
     803      778      746 1
     804      779      746 1
     805      748      747 1
     806      752      747 1
     807      780      747 1
     808      749      748 1
     809      781      748 1
     810      782      748 1
     811      750      749 1
     812      783      749 1
     813      784      749 1
     814      751      750 1
     815      785      750 1
     816      786      750 1
     817      787      751 1
     818      788      751 1
     819      789      751 1
     820      753      752 1
     821      790      752 1
     822      791      752 1
     823      754      753 1
     824      792      753 1
     825      793      753 1
     826      755      754 1
     827      794      754 1
     828      795      754 1
     829      756      755 1
     830      796      755 1
     831      797      755 1
     832      757      756 1
     833      798      756 1
     834      799      756 1
     835      800      757 1
     836      801      757 1
     837      802      757 1
     838      804      803 1
     839      825      803 1
     840      826      803 1
     841      805      804 1
     842      827      804 1
     843      828      804 1
     844      806      805 1
     845      829      805 1
     846      830      805 1
     847      807      806 1
     848      831      806 1
     849      832      806 1
     850      808      807 1
     851      833      807 1
     852      834      807 1
     853      809      808 1
     854      835      808 1
     855      836      808 1
     856      810      809 1
     857      837      809 1
     858      838      809 1
     859      811      810 1
     860      839      810 1
     861      840      810 1
     862      812      811 1
     863      841      811 1
     864      842      811 1
     865      813      812 1
     866      843      812 1
     867      844      812 1
     868      814      813 1
     869      845      813 1
     870      846      813 1
     871      815      814 1
     872      819      814 1
     873      847      814 1
     874      816      815 1
     875      848      815 1
     876      849      815 1
     877      817      816 1
     878      850      816 1
     879      851      816 1
     880      818      817 1
     881      852      817 1
     882      853      817 1
     883      854      818 1
     884      855      818 1
     885      856      818 1
     886      820      819 1
     887      857      819 1
     888      858      819 1
     889      821      820 1
     890      859      820 1
     891      860      820 1
     892      822      821 1
     893      861      821 1
     894      862      821 1
     895      823      822 1
     896      863      822 1
     897      864      822 1
     898      824      823 1
     899      865      823 1
     900      866      823 1
     901      867      824 1
     902      868      824 1
     903      869      824 1
     904      871      870 1
     905      892      870 1
     906      893      870 1
     907      872      871 1
     908      894      871 1
     909      895      871 1
     910      873      872 1
     911      896      872 1
     912      897      872 1
     913      874      873 1
     914      898      873 1
     915      899      873 1
     916      875      874 1
     917      900      874 1
     918      901      874 1
     919      876      875 1
     920      902      875 1
     921      903      875 1
     922      877      876 1
     923      904      876 1
     924      905      876 1
     925      878      877 1
     926      906      877 1
     927      907      877 1
     928      879      878 1
     929      908      878 1
     930      909      878 1
     931      880      879 1
     932      910      879 1
     933      911      879 1
     934      881      880 1
     935      912      880 1
     936      913      880 1
     937      882      881 1
     938      886      881 1
     939      914      881 1
     940      883      882 1
     941      915      882 1
     942      916      882 1
     943      884      883 1
     944      917      883 1
     945      918      883 1
     946      885      884 1
     947      919      884 1
     948      920      884 1
     949      921      885 1
     950      922      885 1
     951      923      885 1
     952      887      886 1
     953      924      886 1
     954      925      886 1
     955      888      887 1
     956      926      887 1
     957      927      887 1
     958      889      888 1
     959      928      888 1
     960      929      888 1
     961      890      889 1
     962      930      889 1
     963      931      889 1
     964      891      890 1
     965      932      890 1
     966      933      890 1
     967      934      891 1
     968      935      891 1
     969      936      891 1
     970      938      937 1
     971      959      937 1
     972      960      937 1
     973      939      938 1
     974      961      938 1
     975      962      938 1
     976      940      939 1
     977      963      939 1
     978      964      939 1
     979      941      940 1
     980      965      940 1
     981      966      940 1
     982      942      941 1
     983      967      941 1
     984      968      941 1
     985      943      942 1
     986      969      942 1
     987      970      942 1
     988      944      943 1
     989      971      943 1
     990      972      943 1
     991      945      944 1
     992      973      944 1
     993      974      944 1
     994      946      945 1
     995      975      945 1
     996      976      945 1
     997      947      946 1
     998      977      946 1
     999      978      946 1
    1000      948      947 1
    1001      979      947 1
    1002      980      947 1
    1003      949      948 1
    1004      953      948 1
    1005      981      948 1
    1006      950      949 1
    1007      982      949 1
    1008      983      949 1
    1009      951      950 1
    1010      984      950 1
    1011      985      950 1
    1012      952      951 1
    1013      986      951 1
    1014      987      951 1
    1015      988      952 1
    1016      989      952 1
    1017      990      952 1
    1018      954      953 1
    1019      991      953 1
    1020      992      953 1
    1021      955      954 1
    1022      993      954 1
    1023      994      954 1
    1024      956      955 1
    1025      995      955 1
    1026      996      955 1
    1027      957      956 1
    1028      997      956 1
    1029      998      956 1
    1030      958      957 1
    1031      999      957 1
    1032     1000      957 1
    1033     1001      958 1
    1034     1002      958 1
    1035     1003      958 1
    1036     1005     1004 1
    1037     1026     1004 1
    1038     1027     1004 1
    1039     1006     1005 1
    1040     1028     1005 1
    1041     1029     1005 1
    1042     1007     1006 1
    1043     1030     1006 1
    1044     1031     1006 1
    1045     1008     1007 1
    1046     1032     1007 1
    1047     1033     1007 1
    1048     1009     1008 1
    1049     1034     1008 1
    1050     1035     1008 1
    1051     1010     1009 1
    1052     1036     1009 1
    1053     1037     1009 1
    1054     1011     1010 1
    1055     1038     1010 1
    1056     1039     1010 1
    1057     1012     1011 1
    1058     1040     1011 1
    1059     1041     1011 1
    1060     1013     1012 1
    1061     1042     1012 1
    1062     1043     1012 1
    1063     1014     1013 1
    1064     1044     1013 1
    1065     1045     1013 1
    1066     1015     1014 1
    1067     1046     1014 1
    1068     1047     1014 1
    1069     1016     1015 1
    1070     1020     1015 1
    1071     1048     1015 1
    1072     1017     1016 1
    1073     1049     1016 1
    1074     1050     1016 1
    1075     1018     1017 1
    1076     1051     1017 1
    1077     1052     1017 1
    1078     1019     1018 1
    1079     1053     1018 1
    1080     1054     1018 1
    1081     1055     1019 1
    1082     1056     1019 1
    1083     1057     1019 1
    1084     1021     1020 1
    1085     1058     1020 1
    1086     1059     1020 1
    1087     1022     1021 1
    1088     1060     1021 1
    1089     1061     1021 1
    1090     1023     1022 1
    1091     1062     1022 1
    1092     1063     1022 1
    1093     1024     1023 1
    1094     1064     1023 1
    1095     1065     1023 1
    1096     1025     1024 1
    1097     1066     1024 1
    1098     1067     1024 1
    1099     1068     1025 1
    1100     1069     1025 1
    1101     1070     1025 1
    1102     1072     1071 1
    1103     1093     1071 1
    1104     1094     1071 1
    1105     1073     1072 1
    1106     1095     1072 1
    1107     1096     1072 1
    1108     1074     1073 1
    1109     1097     1073 1
    1110     1098     1073 1
    1111     1075     1074 1
    1112     1099     1074 1
    1113     1100     1074 1
    1114     1076     1075 1
    1115     1101     1075 1
    1116     1102     1075 1
    1117     1077     1076 1
    1118     1103     1076 1
    1119     1104     1076 1
    1120     1078     1077 1
    1121     1105     1077 1
    1122     1106     1077 1
    1123     1079     1078 1
    1124     1107     1078 1
    1125     1108     1078 1
    1126     1080     1079 1
    1127     1109     1079 1
    1128     1110     1079 1
    1129     1081     1080 1
    1130     1111     1080 1
    1131     1112     1080 1
    1132     1082     1081 1
    1133     1113     1081 1
    1134     1114     1081 1
    1135     1083     1082 1
    1136     1087     1082 1
    1137     1115     1082 1
    1138     1084     1083 1
    1139     1116     1083 1
    1140     1117     1083 1
    1141     1085     1084 1
    1142     1118     1084 1
    1143     1119     1084 1
    1144     1086     1085 1
    1145     1120     1085 1
    1146     1121     1085 1
    1147     1122     1086 1
    1148     1123     1086 1
    1149     1124     1086 1
    1150     1088     1087 1
    1151     1125     1087 1
    1152     1126     1087 1
    1153     1089     1088 1
    1154     1127     1088 1
    1155     1128     1088 1
    1156     1090     1089 1
    1157     1129     1089 1
    1158     1130     1089 1
    1159     1091     1090 1
    1160     1131     1090 1
    1161     1132     1090 1
    1162     1092     1091 1
    1163     1133     1091 1
    1164     1134     1091 1
    1165     1135     1092 1
    1166     1136     1092 1
    1167     1137     1092 1
    1168     1139     1138 1
    1169     1160     1138 1
    1170     1161     1138 1
    1171     1140     1139 1
    1172     1162     1139 1
    1173     1163     1139 1
    1174     1141     1140 1
    1175     1164     1140 1
    1176     1165     1140 1
    1177     1142     1141 1
    1178     1166     1141 1
    1179     1167     1141 1
    1180     1143     1142 1
    1181     1168     1142 1
    1182     1169     1142 1
    1183     1144     1143 1
    1184     1170     1143 1
    1185     1171     1143 1
    1186     1145     1144 1
    1187     1172     1144 1
    1188     1173     1144 1
    1189     1146     1145 1
    1190     1174     1145 1
    1191     1175     1145 1
    1192     1147     1146 1
    1193     1176     1146 1
    1194     1177     1146 1
    1195     1148     1147 1
    1196     1178     1147 1
    1197     1179     1147 1
    1198     1149     1148 1
    1199     1180     1148 1
    1200     1181     1148 1
    1201     1150     1149 1
    1202     1154     1149 1
    1203     1182     1149 1
    1204     1151     1150 1
    1205     1183     1150 1
    1206     1184     1150 1
    1207     1152     1151 1
    1208     1185     1151 1
    1209     1186     1151 1
    1210     1153     1152 1
    1211     1187     1152 1
    1212     1188     1152 1
    1213     1189     1153 1
    1214     1190     1153 1
    1215     1191     1153 1
    1216     1155     1154 1
    1217     1192     1154 1
    1218     1193     1154 1
    1219     1156     1155 1
    1220     1194     1155 1
    1221     1195     1155 1
    1222     1157     1156 1
    1223     1196     1156 1
    1224     1197     1156 1
    1225     1158     1157 1
    1226     1198     1157 1
    1227     1199     1157 1
    1228     1159     1158 1
    1229     1200     1158 1
    1230     1201     1158 1
    1231     1202     1159 1
    1232     1203     1159 1
    1233     1204     1159 1
@<TRIPOS>SUBSTRUCTURE
       1 Polymer         1 RESIDUE    0 **** ROOT      0
