@<TRIPOS>MOLECULE
RES
231 237 1 0 1
SMALL
NO_CHARGES
@<TRIPOS>CRYSIN
   25.6530    25.6350    26.6800    90.0000    90.0000    90.0000  1  1
@<TRIPOS>ATOM
       1 C            9.1320     6.3240     7.0600 C             1 RES     
       2 C            7.7800     6.3170     6.3160 C             1 RES     
       3 C            6.8190     6.7940     7.4320 C             1 RES     
       4 C            7.5410     6.5720     8.8160 C             1 RES     
       5 C            8.4090     7.7580     9.3930 C             1 RES     
       6 C            9.8660     7.4510    10.0810 C             1 RES     
       7 C            9.6600     6.2440    10.8520 C             1 RES     
       8 C            9.2740     5.1490     9.7820 C             1 RES     
       9 C            8.5820     5.6400     8.4350 C             1 RES     
      10 C            8.8420     6.8300    12.0490 C             1 RES     
      11 C            9.1700     8.3870    12.0410 C             1 RES     
      12 C           10.4510     8.5100    11.0920 C             1 RES     
      13 C            7.8830     9.1100    11.9150 C             1 RES     
      14 C            6.7510     8.3080    11.9180 C             1 RES     
      15 S            7.0420     6.5470    12.0240 S             1 RES     
      16 S            5.2120     5.9260     7.2670 S             1 RES     
      17 C            5.8810     4.5540     6.2540 C             1 RES     
      18 C            7.2710     4.9640     5.8670 C             1 RES     
      19 H            7.7930     8.6260     9.6100 H             1 RES     
      20 H            8.6510     4.3820    10.2890 H             1 RES     
      21 H            7.8800    10.1770    11.8340 H             1 RES     
      22 H            5.7610     8.7000    11.7580 H             1 RES     
      23 H            7.8490     4.3380     5.2010 H             1 RES     
      24 C            5.4830     2.9250     4.3290 C             1 RES     
      25 C            5.0410     4.2550     4.9740 C             1 RES     
      26 C            3.5040     4.2640     5.1710 C             1 RES     
      27 N            3.0470     3.3020     6.1530 N             1 RES     
      28 S            1.2990     3.1390     5.8790 S             1 RES     
      29 N            1.3590     3.8340     4.2410 N             1 RES     
      30 C            2.7580     3.9560     3.8810 C             1 RES     
      31 C            3.2310     2.6340     3.2600 C             1 RES     
      32 C            4.7350     2.6740     3.0140 C             1 RES     
      33 H            5.2970     2.0770     5.0250 H             1 RES     
      34 H            2.6880     2.4350     2.3080 H             1 RES     
      35 H            5.0580     1.7040     2.5760 H             1 RES     
      36 C            9.6230     7.9330     7.0100 C             1 RES     
      37 C            8.6070     9.2260     7.0420 C             1 RES     
      38 C            8.8950    10.7060     7.6390 C             1 RES     
      39 C            8.6600    11.0700     9.1910 C             1 RES     
      40 C            8.6900    12.5890     9.5960 C             1 RES     
      41 C            7.4800    13.1500    10.4420 C             1 RES     
      42 C            7.4190    13.0370    12.0170 C             1 RES     
      43 C            6.1250    12.3520    12.5290 C             1 RES     
      44 C            5.7920    12.4580    14.0290 C             1 RES     
      45 C            4.6760    11.4750    14.5240 C             1 RES     
      46 C            3.3230    11.3950    13.7500 C             1 RES     
      47 C            3.4460    10.6500    12.3940 C             1 RES     
      48 C            2.1780    10.5710    11.5300 C             1 RES     
      49 C            1.4220     9.2360    11.6100 C             1 RES     
      50 C            0.7950     8.8870    12.9610 C             1 RES     
      51 C           -0.2820     9.8910    13.3630 C             1 RES     
      52 H           10.1520     8.0590     6.0410 H             1 RES     
      53 H           10.4430     8.0740     7.7140 H             1 RES     
      54 H            8.3660     9.3740     5.9660 H             1 RES     
      55 H            7.6120     9.0170     7.4380 H             1 RES     
      56 H            9.8560    11.1040     7.2570 H             1 RES     
      57 H            8.0950    11.3190     7.1610 H             1 RES     
      58 H            9.3690    10.6040     9.8690 H             1 RES     
      59 H            7.6640    10.7080     9.4870 H             1 RES     
      60 H            9.6490    12.8760    10.0800 H             1 RES     
      61 H            8.6550    13.1560     8.6460 H             1 RES     
      62 H            6.5080    12.8800     9.9710 H             1 RES     
      63 H            7.5420    14.2470    10.2810 H             1 RES     
      64 H            8.3400    12.5830    12.4490 H             1 RES     
      65 H            7.3710    14.0770    12.4240 H             1 RES     
      66 H            5.2890    12.8580    12.0060 H             1 RES     
      67 H            6.1880    11.2900    12.2660 H             1 RES     
      68 H            6.6900    12.2400    14.6480 H             1 RES     
      69 H            5.4890    13.5080    14.2490 H             1 RES     
      70 H            5.0890    10.4450    14.5810 H             1 RES     
      71 H            4.4430    11.7740    15.5760 H             1 RES     
      72 H            2.9110    12.4150    13.6160 H             1 RES     
      73 H            2.6120    10.8180    14.3790 H             1 RES     
      74 H            4.1160    11.2040    11.7530 H             1 RES     
      75 H            3.8860     9.6410    12.5310 H             1 RES     
      76 H            2.5170    10.5990    10.4690 H             1 RES     
      77 H            1.5400    11.4700    11.6700 H             1 RES     
      78 H            0.6250     9.2490    10.8340 H             1 RES     
      79 H            2.1340     8.4240    11.3360 H             1 RES     
      80 H            0.3220     7.8910    12.8580 H             1 RES     
      81 H            1.5770     8.8230    13.7410 H             1 RES     
      82 H           -1.0670     9.9450    12.5760 H             1 RES     
      83 H           -0.7500     9.5570    14.3110 H             1 RES     
      84 H            0.1530    10.8990    13.5160 H             1 RES     
      85 C           10.2580     5.3980     6.4480 C             1 RES     
      86 C           11.4320     5.2420     7.4410 C             1 RES     
      87 C           12.9020     5.1670     6.9450 C             1 RES     
      88 C           13.6980     3.8210     7.0390 C             1 RES     
      89 C           15.1160     4.0960     7.6570 C             1 RES     
      90 C           15.9060     2.9590     8.3500 C             1 RES     
      91 C           16.6620     1.9360     7.4980 C             1 RES     
      92 C           15.7550     0.8650     6.9060 C             1 RES     
      93 C           16.5730    -0.1630     6.0870 C             1 RES     
      94 C           15.6760    -1.1530     5.3220 C             1 RES     
      95 C           15.1690    -2.3810     6.1050 C             1 RES     
      96 C           14.5870    -2.0810     7.4940 C             1 RES     
      97 C           13.9430    -3.3010     8.1740 C             1 RES     
      98 C           12.4190    -3.3980     7.9540 C             1 RES     
      99 C           11.9310    -3.5130     6.5040 C             1 RES     
     100 C           12.3600    -4.8180     5.8400 C             1 RES     
     101 H           10.6010     5.8640     5.5030 H             1 RES     
     102 H            9.9130     4.3690     6.1980 H             1 RES     
     103 H           11.3940     6.1960     7.9770 H             1 RES     
     104 H           11.2340     4.4890     8.2300 H             1 RES     
     105 H           13.1420     5.8100     6.0700 H             1 RES     
     106 H           13.3280     5.7210     7.7900 H             1 RES     
     107 H           13.1660     3.1540     7.7430 H             1 RES     
     108 H           13.7560     3.3220     6.0450 H             1 RES     
     109 H           15.7530     4.6680     6.9500 H             1 RES     
     110 H           14.9490     4.7530     8.5390 H             1 RES     
     111 H           15.2640     2.4460     9.0990 H             1 RES     
     112 H           16.7070     3.4820     8.9200 H             1 RES     
     113 H           17.2700     2.4630     6.7340 H             1 RES     
     114 H           17.3710     1.4050     8.1740 H             1 RES     
     115 H           15.2270     0.3960     7.7480 H             1 RES     
     116 H           14.9920     1.3370     6.2590 H             1 RES     
     117 H           17.1280     0.4110     5.3240 H             1 RES     
     118 H           17.3350    -0.6970     6.6960 H             1 RES     
     119 H           14.8240    -0.5890     4.8850 H             1 RES     
     120 H           16.2560    -1.5670     4.4670 H             1 RES     
     121 H           16.0160    -3.0870     6.2550 H             1 RES     
     122 H           14.4390    -2.8810     5.4440 H             1 RES     
     123 H           15.4610    -1.7840     8.1130 H             1 RES     
     124 H           13.8480    -1.2540     7.4750 H             1 RES     
     125 H           14.0520    -3.1570     9.2720 H             1 RES     
     126 H           14.4880    -4.2360     7.9200 H             1 RES     
     127 H           12.0280    -4.2560     8.5410 H             1 RES     
     128 H           11.9640    -2.4740     8.3800 H             1 RES     
     129 H           10.8210    -3.4850     6.5140 H             1 RES     
     130 H           12.2730    -2.6380     5.9140 H             1 RES     
     131 H           11.9570    -5.6820     6.4080 H             1 RES     
     132 H           11.9550    -4.8480     4.8070 H             1 RES     
     133 H           13.4640    -4.9060     5.7900 H             1 RES     
     134 C           11.4190     8.3210    12.3380 C             1 RES     
     135 C           11.8250     9.6340    13.1680 C             1 RES     
     136 C           10.8600    10.7750    13.7670 C             1 RES     
     137 C           11.5990    11.5510    14.9500 C             1 RES     
     138 C           11.4900    13.1100    15.1330 C             1 RES     
     139 C           10.3620    13.8790    15.8900 C             1 RES     
     140 C           10.5310    14.1580    17.4240 C             1 RES     
     141 C           10.2040    12.9780    18.3140 C             1 RES     
     142 C           10.0390    13.3200    19.8210 C             1 RES     
     143 C            9.5540    12.1500    20.7430 C             1 RES     
     144 C            8.2540    11.4640    20.2600 C             1 RES     
     145 C            8.5070    10.4510    19.1110 C             1 RES     
     146 C            7.5100    10.5550    17.9350 C             1 RES     
     147 C            6.3720     9.5380    17.9670 C             1 RES     
     148 C            5.4490     9.5920    19.1860 C             1 RES     
     149 C            4.6570    10.8910    19.2860 C             1 RES     
     150 H           11.0430     7.6090    13.1150 H             1 RES     
     151 H           12.3360     7.8150    12.0490 H             1 RES     
     152 H           12.3660     9.2200    14.0450 H             1 RES     
     153 H           12.5810    10.1980    12.5840 H             1 RES     
     154 H           10.6300    11.4730    12.9270 H             1 RES     
     155 H            9.8910    10.3930    14.1520 H             1 RES     
     156 H           11.4960    11.0050    15.9120 H             1 RES     
     157 H           12.6700    11.4720    14.6750 H             1 RES     
     158 H           12.4220    13.4490    15.6400 H             1 RES     
     159 H           11.5390    13.5230    14.1040 H             1 RES     
     160 H            9.3470    13.5180    15.6240 H             1 RES     
     161 H           10.4360    14.9140    15.4820 H             1 RES     
     162 H           11.5400    14.5620    17.6640 H             1 RES     
     163 H            9.7940    14.9530    17.6830 H             1 RES     
     164 H            9.2170    12.6470    17.9540 H             1 RES     
     165 H           10.9780    12.1880    18.1800 H             1 RES     
     166 H           10.9930    13.7220    20.2310 H             1 RES     
     167 H            9.2780    14.1280    19.9030 H             1 RES     
     168 H           10.3520    11.3830    20.8830 H             1 RES     
     169 H            9.3650    12.6060    21.7380 H             1 RES     
     170 H            7.5640    12.2860    19.9670 H             1 RES     
     171 H            7.7630    10.9090    21.0890 H             1 RES     
     172 H            9.4930    10.6540    18.6770 H             1 RES     
     173 H            8.6780     9.4150    19.4700 H             1 RES     
     174 H            8.0760    10.3180    17.0080 H             1 RES     
     175 H            7.1490    11.6000    17.8110 H             1 RES     
     176 H            5.7680     9.6700    17.0410 H             1 RES     
     177 H            6.8310     8.5270    17.9270 H             1 RES     
     178 H            4.7240     8.7560    19.0860 H             1 RES     
     179 H            6.0360     9.4280    20.1130 H             1 RES     
     180 H            4.0480    11.0430    18.3700 H             1 RES     
     181 H            3.9750    10.8280    20.1600 H             1 RES     
     182 H            5.3290    11.7590    19.4280 H             1 RES     
     183 C           11.4660     9.2960    10.0610 C             1 RES     
     184 C           12.8000     8.5100     9.5720 C             1 RES     
     185 C           13.5790     9.1460     8.3400 C             1 RES     
     186 C           14.7850     8.3750     7.6110 C             1 RES     
     187 C           16.1910     8.3960     8.2750 C             1 RES     
     188 C           17.3780     7.5260     7.6770 C             1 RES     
     189 C           18.0960     7.7420     6.2830 C             1 RES     
     190 C           17.5930     6.8690     5.1030 C             1 RES     
     191 C           18.6430     6.7210     3.9350 C             1 RES     
     192 C           18.1800     5.9760     2.6420 C             1 RES     
     193 C           17.9400     4.4400     2.6500 C             1 RES     
     194 C           17.0130     4.0150     3.7800 C             1 RES     
     195 C           16.4440     2.5980     3.7750 C             1 RES     
     196 C           15.1490     2.3640     2.9750 C             1 RES     
     197 C           15.2970     2.1480     1.4690 C             1 RES     
     198 C           16.0940     0.8800     1.1530 C             1 RES     
     199 H           10.9540     9.5460     9.1230 H             1 RES     
     200 H           11.7870    10.2830    10.4790 H             1 RES     
     201 H           13.5270     8.3790    10.3980 H             1 RES     
     202 H           12.4950     7.4980     9.2600 H             1 RES     
     203 H           12.8070     9.2470     7.5520 H             1 RES     
     204 H           13.9250    10.1650     8.6090 H             1 RES     
     205 H           14.5170     7.3410     7.4000 H             1 RES     
     206 H           14.9410     8.8590     6.6230 H             1 RES     
     207 H           16.5330     9.4500     8.3350 H             1 RES     
     208 H           16.0570     8.0220     9.3130 H             1 RES     
     209 H           17.1650     6.4430     7.7960 H             1 RES     
     210 H           18.1940     7.7360     8.4070 H             1 RES     
     211 H           18.2140     8.8120     6.0160 H             1 RES     
     212 H           19.1280     7.3520     6.4510 H             1 RES     
     213 H           17.4160     5.8810     5.5340 H             1 RES     
     214 H           16.6350     7.2720     4.7180 H             1 RES     
     215 H           18.9050     7.7510     3.6080 H             1 RES     
     216 H           19.5860     6.2500     4.3080 H             1 RES     
     217 H           17.2510     6.4700     2.2960 H             1 RES     
     218 H           18.9520     6.1430     1.8550 H             1 RES     
     219 H           18.8980     3.8750     2.7460 H             1 RES     
     220 H           17.5080     4.1780     1.6650 H             1 RES     
     221 H           17.6640     4.0460     4.6750 H             1 RES     
     222 H           16.1620     4.7250     3.8820 H             1 RES     
     223 H           16.0970     2.4940     4.8100 H             1 RES     
     224 H           17.2240     1.8310     3.6010 H             1 RES     
     225 H           14.6660     1.4460     3.3830 H             1 RES     
     226 H           14.4480     3.2040     3.1730 H             1 RES     
     227 H           14.2730     2.0110     1.0560 H             1 RES     
     228 H           15.7480     3.0290     0.9770 H             1 RES     
     229 H           15.6270    -0.0020     1.6490 H             1 RES     
     230 H           16.0950     0.7070     0.0580 H             1 RES     
     231 H           17.1430     0.9740     1.4950 H             1 RES     
@<TRIPOS>BOND
       1        2        1 1
       2        9        1 1
       3       36        1 1
       4       85        1 1
       5        3        2 1
       6       18        2 1
       7        4        3 1
       8       16        3 1
       9        5        4 1
      10        9        4 1
      11        6        5 1
      12       19        5 1
      13        7        6 1
      14       12        6 1
      15        8        7 1
      16       10        7 1
      17        9        8 1
      18       20        8 1
      19       11       10 1
      20       15       10 1
      21       12       11 1
      22       13       11 1
      23      134       12 1
      24      183       12 1
      25       14       13 1
      26       21       13 1
      27       15       14 1
      28       22       14 1
      29       17       16 1
      30       18       17 1
      31       25       17 1
      32       23       18 1
      33       25       24 1
      34       32       24 1
      35       33       24 1
      36       26       25 1
      37       27       26 1
      38       30       26 1
      39       28       27 1
      40       29       28 1
      41       30       29 1
      42       31       30 1
      43       32       31 1
      44       34       31 1
      45       35       32 1
      46       37       36 1
      47       52       36 1
      48       53       36 1
      49       38       37 1
      50       54       37 1
      51       55       37 1
      52       39       38 1
      53       56       38 1
      54       57       38 1
      55       40       39 1
      56       58       39 1
      57       59       39 1
      58       41       40 1
      59       60       40 1
      60       61       40 1
      61       42       41 1
      62       62       41 1
      63       63       41 1
      64       43       42 1
      65       64       42 1
      66       65       42 1
      67       44       43 1
      68       66       43 1
      69       67       43 1
      70       45       44 1
      71       68       44 1
      72       69       44 1
      73       46       45 1
      74       70       45 1
      75       71       45 1
      76       47       46 1
      77       72       46 1
      78       73       46 1
      79       48       47 1
      80       74       47 1
      81       75       47 1
      82       49       48 1
      83       76       48 1
      84       77       48 1
      85       50       49 1
      86       78       49 1
      87       79       49 1
      88       51       50 1
      89       80       50 1
      90       81       50 1
      91       82       51 1
      92       83       51 1
      93       84       51 1
      94       86       85 1
      95      101       85 1
      96      102       85 1
      97       87       86 1
      98      103       86 1
      99      104       86 1
     100       88       87 1
     101      105       87 1
     102      106       87 1
     103       89       88 1
     104      107       88 1
     105      108       88 1
     106       90       89 1
     107      109       89 1
     108      110       89 1
     109       91       90 1
     110      111       90 1
     111      112       90 1
     112       92       91 1
     113      113       91 1
     114      114       91 1
     115       93       92 1
     116      115       92 1
     117      116       92 1
     118       94       93 1
     119      117       93 1
     120      118       93 1
     121       95       94 1
     122      119       94 1
     123      120       94 1
     124       96       95 1
     125      121       95 1
     126      122       95 1
     127       97       96 1
     128      123       96 1
     129      124       96 1
     130       98       97 1
     131      125       97 1
     132      126       97 1
     133       99       98 1
     134      127       98 1
     135      128       98 1
     136      100       99 1
     137      129       99 1
     138      130       99 1
     139      131      100 1
     140      132      100 1
     141      133      100 1
     142      135      134 1
     143      150      134 1
     144      151      134 1
     145      136      135 1
     146      152      135 1
     147      153      135 1
     148      137      136 1
     149      154      136 1
     150      155      136 1
     151      138      137 1
     152      156      137 1
     153      157      137 1
     154      139      138 1
     155      158      138 1
     156      159      138 1
     157      140      139 1
     158      160      139 1
     159      161      139 1
     160      141      140 1
     161      162      140 1
     162      163      140 1
     163      142      141 1
     164      164      141 1
     165      165      141 1
     166      143      142 1
     167      166      142 1
     168      167      142 1
     169      144      143 1
     170      168      143 1
     171      169      143 1
     172      145      144 1
     173      170      144 1
     174      171      144 1
     175      146      145 1
     176      172      145 1
     177      173      145 1
     178      147      146 1
     179      174      146 1
     180      175      146 1
     181      148      147 1
     182      176      147 1
     183      177      147 1
     184      149      148 1
     185      178      148 1
     186      179      148 1
     187      180      149 1
     188      181      149 1
     189      182      149 1
     190      184      183 1
     191      199      183 1
     192      200      183 1
     193      185      184 1
     194      201      184 1
     195      202      184 1
     196      186      185 1
     197      203      185 1
     198      204      185 1
     199      187      186 1
     200      205      186 1
     201      206      186 1
     202      188      187 1
     203      207      187 1
     204      208      187 1
     205      189      188 1
     206      209      188 1
     207      210      188 1
     208      190      189 1
     209      211      189 1
     210      212      189 1
     211      191      190 1
     212      213      190 1
     213      214      190 1
     214      192      191 1
     215      215      191 1
     216      216      191 1
     217      193      192 1
     218      217      192 1
     219      218      192 1
     220      194      193 1
     221      219      193 1
     222      220      193 1
     223      195      194 1
     224      221      194 1
     225      222      194 1
     226      196      195 1
     227      223      195 1
     228      224      195 1
     229      197      196 1
     230      225      196 1
     231      226      196 1
     232      198      197 1
     233      227      197 1
     234      228      197 1
     235      229      198 1
     236      230      198 1
     237      231      198 1
@<TRIPOS>SUBSTRUCTURE
       1 RES             1 RESIDUE    0 **** ROOT      0
