@<TRIPOS>MOLECULE
Polymer
439 446 1 0 1
SMALL
NO_CHARGES
@<TRIPOS>CRYSIN
   24.6760    29.7446    27.9321    90.0000    90.0000    90.0000  1  1
@<TRIPOS>ATOM
       1 C            7.1649     0.0663    15.8008 C             1 Polymer 
       2 C            6.0856    -0.6142    15.0142 C             1 Polymer 
       3 C            6.4793    -1.9613    14.5049 C             1 Polymer 
       4 C            8.0024    -1.6655    14.4766 C             1 Polymer 
       5 C            9.1913    -2.4199    14.8995 C             1 Polymer 
       6 C           10.4574    -1.7202    15.0252 C             1 Polymer 
       7 C           10.4710    -0.4307    14.4739 C             1 Polymer 
       8 C            9.3151     0.2946    14.2457 C             1 Polymer 
       9 C            8.0935    -0.2665    14.5355 C             1 Polymer 
      10 C           11.8313    -0.0694    14.1516 C             1 Polymer 
      11 C           12.6563    -0.9590    14.6455 C             1 Polymer 
      12 C           11.9537    -1.8708    15.6497 C             1 Polymer 
      13 C           13.9551    -0.9421    13.9859 C             1 Polymer 
      14 C           13.9526     0.0121    12.9741 C             1 Polymer 
      15 S           12.4644     1.0338    12.9136 S             1 Polymer 
      16 S            5.5564    -2.0168    12.8424 S             1 Polymer 
      17 C            4.7525    -0.3413    13.0210 C             1 Polymer 
      18 C            5.2659     0.1937    14.2669 C             1 Polymer 
      19 H            9.1086    -3.4515    15.2201 H             1 Polymer 
      20 H            9.3377     1.2919    13.9025 H             1 Polymer 
      21 H           14.7445    -1.6689    14.1237 H             1 Polymer 
      22 H            5.1936     1.2598    14.4050 H             1 Polymer 
      23 C           -0.4087     1.4117    12.5603 C             1 Polymer 
      24 C           -0.4248     2.2397    11.2231 C             1 Polymer 
      25 C            0.8873     2.6005    10.7373 C             1 Polymer 
      26 S            0.9238     3.5994     9.2623 S             1 Polymer 
      27 C           -0.8835     3.5243     9.3860 C             1 Polymer 
      28 C           -1.3902     2.7628    10.4496 C             1 Polymer 
      29 C            1.8172     2.0244    11.4647 C             1 Polymer 
      30 C            1.1920     1.2788    12.5286 C             1 Polymer 
      31 C            2.0815     0.3437    12.9714 C             1 Polymer 
      32 C            3.4618     0.3057    12.3030 C             1 Polymer 
      33 S            3.6081     1.8528    11.2824 S             1 Polymer 
      34 H           -2.4479     2.6675    10.6283 H             1 Polymer 
      35 H            1.8359    -0.4757    13.5793 H             1 Polymer 
      36 C           -1.5925     2.1742    13.4165 C             1 Polymer 
      37 C           -2.2792     2.1412    14.8869 C             1 Polymer 
      38 C           -3.1074     1.0679    15.8312 C             1 Polymer 
      39 C           -2.9843    -0.3288    16.7230 C             1 Polymer 
      40 C           -2.4950    -0.6706    18.2677 C             1 Polymer 
      41 C           -1.0283    -1.1542    18.7699 C             1 Polymer 
      42 C           -0.7937    -1.4465    20.3406 C             1 Polymer 
      43 C            0.7355    -1.5542    20.8763 C             1 Polymer 
      44 C            1.0227    -2.2363    22.3247 C             1 Polymer 
      45 C            2.0411    -1.7108    23.5591 C             1 Polymer 
      46 C            2.5061    -2.4808    25.0433 C             1 Polymer 
      47 C            3.9184    -3.1568    25.6405 C             1 Polymer 
      48 C            3.8272    -3.4462    27.1943 C             1 Polymer 
      49 C            3.0314    -2.4632    28.0867 C             1 Polymer 
      50 C            3.3090    -2.6715    29.5902 C             1 Polymer 
      51 C            2.4993    -1.7436    30.4816 C             1 Polymer 
      52 C            4.6201    -4.5065    25.0961 C             1 Polymer 
      53 C            6.2192    -4.5643    24.9936 C             1 Polymer 
      54 C            6.7643    -5.6414    23.9734 C             1 Polymer 
      55 C            8.3027    -5.6567    23.6513 C             1 Polymer 
      56 C            8.8934    -4.4796    22.8465 C             1 Polymer 
      57 C            8.3849    -4.3728    21.3973 C             1 Polymer 
      58 H           -2.4944     1.9808    12.7878 H             1 Polymer 
      59 H           -1.4012     3.2670    13.2695 H             1 Polymer 
      60 H           -1.7277     2.8461    15.4528 H             1 Polymer 
      61 H           -3.1150     2.8566    14.6856 H             1 Polymer 
      62 H           -3.5961     1.7483    16.5627 H             1 Polymer 
      63 H           -3.9088     0.7884    15.1057 H             1 Polymer 
      64 H           -2.7644    -1.1913    16.0697 H             1 Polymer 
      65 H           -4.0786    -0.4735    16.8828 H             1 Polymer 
      66 H           -2.8283     0.1727    18.9062 H             1 Polymer 
      67 H           -3.1275    -1.5396    18.5592 H             1 Polymer 
      68 H           -0.3050    -0.4085    18.5442 H             1 Polymer 
      69 H           -0.7312    -2.0607    18.1987 H             1 Polymer 
      70 H           -1.3463    -2.3814    20.5753 H             1 Polymer 
      71 H           -1.2538    -0.6220    20.9177 H             1 Polymer 
      72 H            1.2402    -0.5732    20.7990 H             1 Polymer 
      73 H            1.2490    -2.1997    20.1246 H             1 Polymer 
      74 H            0.0365    -2.4059    22.7467 H             1 Polymer 
      75 H            1.2900    -3.2364    21.9785 H             1 Polymer 
      76 H            2.8999    -1.1972    23.1101 H             1 Polymer 
      77 H            1.4970    -0.8199    23.9075 H             1 Polymer 
      78 H            2.3558    -1.6465    25.7179 H             1 Polymer 
      79 H            1.7362    -3.0793    25.5199 H             1 Polymer 
      80 H            4.6379    -2.3500    25.4299 H             1 Polymer 
      81 H            4.8672    -3.5483    27.5576 H             1 Polymer 
      82 H            3.3476    -4.4377    27.3714 H             1 Polymer 
      83 H            1.9490    -2.6171    27.8883 H             1 Polymer 
      84 H            3.3003    -1.4227    27.8511 H             1 Polymer 
      85 H            3.1477    -3.7274    29.8997 H             1 Polymer 
      86 H            4.3401    -2.3878    29.8004 H             1 Polymer 
      87 H            2.8497    -1.8582    31.5323 H             1 Polymer 
      88 H            1.4224    -1.9952    30.4305 H             1 Polymer 
      89 H            2.6623    -0.6867    30.1793 H             1 Polymer 
      90 H            4.2329    -5.4423    25.5566 H             1 Polymer 
      91 H            4.2567    -4.6314    24.1363 H             1 Polymer 
      92 H            6.6638    -4.7951    25.9790 H             1 Polymer 
      93 H            6.6039    -3.5758    24.6697 H             1 Polymer 
      94 H            6.5147    -6.6419    24.3807 H             1 Polymer 
      95 H            6.2638    -5.5717    22.9953 H             1 Polymer 
      96 H            8.8759    -5.7496    24.5948 H             1 Polymer 
      97 H            8.5215    -6.5627    23.0418 H             1 Polymer 
      98 H            8.7476    -3.5368    23.4059 H             1 Polymer 
      99 H            9.9872    -4.6402    22.7650 H             1 Polymer 
     100 H            8.6474    -5.2716    20.8059 H             1 Polymer 
     101 H            7.2906    -4.2291    21.3481 H             1 Polymer 
     102 H            8.8635    -3.5123    20.8952 H             1 Polymer 
     103 C           -0.8422    -0.0380    12.5145 C             1 Polymer 
     104 C           -1.0942    -0.5963    13.9607 C             1 Polymer 
     105 C           -0.1697    -0.4964    15.2936 C             1 Polymer 
     106 C            0.4469     0.6494    16.2818 C             1 Polymer 
     107 C           -0.3342     1.6567    17.2794 C             1 Polymer 
     108 C            0.3437     2.1649    18.5952 C             1 Polymer 
     109 C           -0.4617     3.3025    19.3537 C             1 Polymer 
     110 C            0.3913     3.9726    20.4884 C             1 Polymer 
     111 C            0.3114     5.5235    20.7197 C             1 Polymer 
     112 C            0.5683     6.2598    19.3895 C             1 Polymer 
     113 C            0.9237     7.7757    19.3272 C             1 Polymer 
     114 C            2.1597     8.0344    18.4040 C             1 Polymer 
     115 C            2.1928     9.4353    17.7356 C             1 Polymer 
     116 C            1.2703    10.2143    16.8144 C             1 Polymer 
     117 C            2.1611    11.4210    16.3374 C             1 Polymer 
     118 C            1.5477    12.2934    15.2712 C             1 Polymer 
     119 C            3.5610     7.8365    19.1507 C             1 Polymer 
     120 C            4.7229     8.2759    18.2118 C             1 Polymer 
     121 C            6.1667     8.6925    18.4652 C             1 Polymer 
     122 C            6.7088     9.2657    17.0564 C             1 Polymer 
     123 C            6.6272     8.4609    15.7132 C             1 Polymer 
     124 C            7.9604     8.0162    15.0916 C             1 Polymer 
     125 H           -0.1257    -0.6642    11.9337 H             1 Polymer 
     126 H           -1.7886    -0.1174    11.9318 H             1 Polymer 
     127 H           -1.2553    -1.6787    13.7774 H             1 Polymer 
     128 H           -2.1008    -0.2658    14.1686 H             1 Polymer 
     129 H           -0.6775    -1.1674    15.9917 H             1 Polymer 
     130 H            0.6945    -1.1233    15.0534 H             1 Polymer 
     131 H            1.2238     1.2152    15.7527 H             1 Polymer 
     132 H            1.0458     0.0284    16.9735 H             1 Polymer 
     133 H           -0.4454     2.5866    16.7892 H             1 Polymer 
     134 H           -1.3102     1.3143    17.5878 H             1 Polymer 
     135 H            1.3050     2.5935    18.2727 H             1 Polymer 
     136 H            0.5451     1.3556    19.3195 H             1 Polymer 
     137 H           -1.4413     2.9660    19.7590 H             1 Polymer 
     138 H           -0.7251     4.0555    18.6068 H             1 Polymer 
     139 H            1.4227     3.8732    20.1797 H             1 Polymer 
     140 H            0.3096     3.3938    21.4345 H             1 Polymer 
     141 H           -0.6404     5.8483    21.1851 H             1 Polymer 
     142 H            1.1444     5.7764    21.4172 H             1 Polymer 
     143 H            1.3898     5.7215    18.9014 H             1 Polymer 
     144 H           -0.3516     6.1215    18.7870 H             1 Polymer 
     145 H            0.0484     8.2527    18.8236 H             1 Polymer 
     146 H            1.0225     8.2646    20.3172 H             1 Polymer 
     147 H            2.0947     7.3397    17.5462 H             1 Polymer 
     148 H            2.9100     9.2123    16.9210 H             1 Polymer 
     149 H            2.5161    10.1444    18.5321 H             1 Polymer 
     150 H            0.3666    10.5613    17.3417 H             1 Polymer 
     151 H            0.9897     9.5822    15.9386 H             1 Polymer 
     152 H            2.4288    12.0524    17.2150 H             1 Polymer 
     153 H            3.1252    11.0575    15.9000 H             1 Polymer 
     154 H            2.2752    13.1018    15.0275 H             1 Polymer 
     155 H            0.6092    12.7427    15.6424 H             1 Polymer 
     156 H            1.3725    11.6931    14.3549 H             1 Polymer 
     157 H            3.5816     8.4898    20.0513 H             1 Polymer 
     158 H            3.6948     6.7887    19.5068 H             1 Polymer 
     159 H            4.4885     9.3014    17.9781 H             1 Polymer 
     160 H            4.6655     7.5757    17.3626 H             1 Polymer 
     161 H            6.1841     9.5069    19.2215 H             1 Polymer 
     162 H            6.7235     7.9392    19.0138 H             1 Polymer 
     163 H            6.0628    10.1404    16.8828 H             1 Polymer 
     164 H            7.6809     9.7457    17.0512 H             1 Polymer 
     165 H            5.8934     7.6383    15.6980 H             1 Polymer 
     166 H            6.2695     9.1936    14.9642 H             1 Polymer 
     167 H            8.7130     8.8310    15.0992 H             1 Polymer 
     168 H            8.3770     7.1457    15.5720 H             1 Polymer 
     169 H            7.8084     7.7182    14.0375 H             1 Polymer 
     170 C            6.5216     1.2744    16.6515 C             1 Polymer 
     171 C            6.5543     1.3801    18.2684 C             1 Polymer 
     172 C            7.1508     2.3672    19.3942 C             1 Polymer 
     173 C            8.5301     2.4845    20.1001 C             1 Polymer 
     174 C            9.8755     3.0117    19.5667 C             1 Polymer 
     175 C           10.5768     2.4279    18.2893 C             1 Polymer 
     176 C           10.7688     3.2640    16.9484 C             1 Polymer 
     177 C           10.0594     2.8130    15.6679 C             1 Polymer 
     178 C            9.5623     3.8201    14.5743 C             1 Polymer 
     179 C            8.0590     4.1039    14.6695 C             1 Polymer 
     180 C            7.3994     4.6992    13.4067 C             1 Polymer 
     181 C            5.9065     5.1124    13.5504 C             1 Polymer 
     182 C            5.3747     5.7709    12.2440 C             1 Polymer 
     183 C            5.8661     7.1937    12.0496 C             1 Polymer 
     184 C            5.1121     7.8490    10.8844 C             1 Polymer 
     185 C            5.4516     9.3185    10.7873 C             1 Polymer 
     186 C            4.9339     4.0098    13.9803 C             1 Polymer 
     187 C            3.4604     4.4921    14.1529 C             1 Polymer 
     188 C            2.5157     3.4352    14.7143 C             1 Polymer 
     189 C            1.0456     3.7917    14.3989 C             1 Polymer 
     190 C            0.5136     5.1198    14.9169 C             1 Polymer 
     191 C            0.8002     5.3028    16.3755 C             1 Polymer 
     192 H            5.4679     0.8791    16.6436 H             1 Polymer 
     193 H            6.2579     2.1706    16.1139 H             1 Polymer 
     194 H            5.5491     1.7239    18.3792 H             1 Polymer 
     195 H            6.4389     0.3813    18.7131 H             1 Polymer 
     196 H            6.7581     3.3707    19.3610 H             1 Polymer 
     197 H            6.5545     2.0548    20.2644 H             1 Polymer 
     198 H            8.7518     1.5689    20.6091 H             1 Polymer 
     199 H            8.3288     3.1389    20.9843 H             1 Polymer 
     200 H            9.9786     4.0948    19.7104 H             1 Polymer 
     201 H           10.5392     2.7216    20.4162 H             1 Polymer 
     202 H           10.3648     1.3742    18.1403 H             1 Polymer 
     203 H           11.6182     2.3867    18.6607 H             1 Polymer 
     204 H           10.8652     4.3462    16.9812 H             1 Polymer 
     205 H           11.8348     3.0522    16.6966 H             1 Polymer 
     206 H           10.8538     2.2455    15.1338 H             1 Polymer 
     207 H            9.2613     2.1181    15.9492 H             1 Polymer 
     208 H           10.1802     4.7440    14.5107 H             1 Polymer 
     209 H            9.6763     3.3328    13.5837 H             1 Polymer 
     210 H            7.5435     3.1550    14.8646 H             1 Polymer 
     211 H            7.9898     4.8021    15.4780 H             1 Polymer 
     212 H            7.9864     5.5861    13.1133 H             1 Polymer 
     213 H            7.4573     3.9418    12.5976 H             1 Polymer 
     214 H            5.8001     5.8819    14.3690 H             1 Polymer 
     215 H            4.2945     5.9261    12.2800 H             1 Polymer 
     216 H            5.5770     5.1105    11.3732 H             1 Polymer 
     217 H            6.9571     7.2231    11.8820 H             1 Polymer 
     218 H            5.6116     7.7642    12.9745 H             1 Polymer 
     219 H            5.3559     7.3209     9.9402 H             1 Polymer 
     220 H            4.0100     7.7729    11.0548 H             1 Polymer 
     221 H            4.8843     9.7713     9.9487 H             1 Polymer 
     222 H            6.5398     9.4466    10.6179 H             1 Polymer 
     223 H            5.1609     9.8357    11.7314 H             1 Polymer 
     224 H            4.9396     3.1834    13.2384 H             1 Polymer 
     225 H            5.2374     3.5944    14.9461 H             1 Polymer 
     226 H            3.0248     4.7147    13.1684 H             1 Polymer 
     227 H            3.4057     5.3821    14.8117 H             1 Polymer 
     228 H            2.7296     2.4782    14.2252 H             1 Polymer 
     229 H            2.6646     3.2746    15.7988 H             1 Polymer 
     230 H            0.8859     3.8095    13.3036 H             1 Polymer 
     231 H            0.4369     2.9885    14.8177 H             1 Polymer 
     232 H            0.9612     5.9701    14.3679 H             1 Polymer 
     233 H           -0.5880     5.1302    14.7558 H             1 Polymer 
     234 H            0.4555     4.4458    16.9417 H             1 Polymer 
     235 H            1.8871     5.3828    16.5579 H             1 Polymer 
     236 H            0.2740     6.2145    16.7060 H             1 Polymer 
     237 C            8.0801    -0.5717    16.8888 C             1 Polymer 
     238 C            8.0366    -1.4770    18.1753 C             1 Polymer 
     239 C            8.9578    -0.7268    19.1910 C             1 Polymer 
     240 C            9.6126    -0.9199    20.5654 C             1 Polymer 
     241 C            9.0177    -0.5061    21.9321 C             1 Polymer 
     242 C            7.5063    -0.2974    22.1261 C             1 Polymer 
     243 C            6.7791    -1.5986    21.8229 C             1 Polymer 
     244 C            5.2988    -1.5767    22.1801 C             1 Polymer 
     245 C            4.7143    -3.0099    22.4086 C             1 Polymer 
     246 C            3.8475    -3.9044    21.4611 C             1 Polymer 
     247 C            3.2198    -5.3033    22.0585 C             1 Polymer 
     248 C            1.7795    -5.7307    22.7731 C             1 Polymer 
     249 C            1.8256    -7.1780    23.3397 C             1 Polymer 
     250 C            2.5590    -8.2183    22.5093 C             1 Polymer 
     251 C            2.3847    -9.6009    23.1450 C             1 Polymer 
     252 C            3.2072   -10.6365    22.3969 C             1 Polymer 
     253 C            1.1360    -4.9490    23.9744 C             1 Polymer 
     254 C           -0.4298    -4.6654    24.0725 C             1 Polymer 
     255 C           -0.7578    -3.4827    25.0821 C             1 Polymer 
     256 C           -2.1635    -2.8213    25.0944 C             1 Polymer 
     257 C           -2.4918    -1.8725    23.9069 C             1 Polymer 
     258 C           -1.7025    -0.5441    23.8895 C             1 Polymer 
     259 H            8.9973     0.0477    16.8771 H             1 Polymer 
     260 H            8.9973     0.0477    16.8771 H             1 Polymer 
     261 H            6.9978    -1.6911    18.4943 H             1 Polymer 
     262 H            8.5180    -2.4426    17.9204 H             1 Polymer 
     263 H            9.8862    -0.7010    18.6306 H             1 Polymer 
     264 H            8.5487     0.2403    19.1895 H             1 Polymer 
     265 H           10.4264    -0.1573    20.5361 H             1 Polymer 
     266 H           10.2099    -1.8375    20.5870 H             1 Polymer 
     267 H            9.3177    -1.3071    22.5943 H             1 Polymer 
     268 H            9.5445     0.3987    22.3410 H             1 Polymer 
     269 H            7.1116     0.5351    21.5466 H             1 Polymer 
     270 H            7.3824    -0.0324    23.1966 H             1 Polymer 
     271 H            7.2516    -2.2985    22.5164 H             1 Polymer 
     272 H            6.9199    -1.9097    20.7788 H             1 Polymer 
     273 H            4.6745    -0.9072    21.5562 H             1 Polymer 
     274 H            5.3145    -1.1108    23.2010 H             1 Polymer 
     275 H            5.5455    -3.6074    22.7614 H             1 Polymer 
     276 H            4.0807    -2.8532    23.2213 H             1 Polymer 
     277 H            3.0995    -3.2887    20.9503 H             1 Polymer 
     278 H            4.5756    -4.1824    20.6724 H             1 Polymer 
     279 H            3.1401    -5.8945    21.1271 H             1 Polymer 
     280 H            4.0462    -5.8254    22.5614 H             1 Polymer 
     281 H            1.0506    -5.6458    21.9401 H             1 Polymer 
     282 H            0.7793    -7.5042    23.5349 H             1 Polymer 
     283 H            2.3636    -7.1705    24.3207 H             1 Polymer 
     284 H            3.6431    -7.9738    22.4954 H             1 Polymer 
     285 H            2.1615    -8.2226    21.4765 H             1 Polymer 
     286 H            2.7103    -9.5954    24.2112 H             1 Polymer 
     287 H            1.3088    -9.8779    23.1062 H             1 Polymer 
     288 H            3.0087   -11.6428    22.8194 H             1 Polymer 
     289 H            4.2893   -10.4049    22.5079 H             1 Polymer 
     290 H            2.9375   -10.6294    21.3200 H             1 Polymer 
     291 H            1.5572    -5.2158    24.9709 H             1 Polymer 
     292 H            1.5311    -4.0528    23.7468 H             1 Polymer 
     293 H           -0.9890    -5.5749    24.3831 H             1 Polymer 
     294 H           -0.8023    -4.3848    23.0694 H             1 Polymer 
     295 H           -0.5417    -3.8565    26.1073 H             1 Polymer 
     296 H           -0.1214    -2.6144    24.9049 H             1 Polymer 
     297 H           -2.9362    -3.6084    25.1824 H             1 Polymer 
     298 H           -2.2358    -2.1811    26.0066 H             1 Polymer 
     299 H           -2.3735    -2.4093    22.9452 H             1 Polymer 
     300 H           -3.5556    -1.5654    24.0013 H             1 Polymer 
     301 H           -1.8588     0.0408    24.8185 H             1 Polymer 
     302 H           -0.6250    -0.6790    23.7819 H             1 Polymer 
     303 H           -2.0296     0.0820    23.0315 H             1 Polymer 
     304 C           12.7657    -3.2153    16.0447 C             1 Polymer 
     305 C           12.5284    -3.9993    17.4476 C             1 Polymer 
     306 C           13.3452    -3.6622    18.8034 C             1 Polymer 
     307 C           12.6284    -4.1047    20.1566 C             1 Polymer 
     308 C           13.0864    -3.6872    21.6535 C             1 Polymer 
     309 C           12.2102    -2.6276    22.4651 C             1 Polymer 
     310 C           12.2052    -2.7322    24.0582 C             1 Polymer 
     311 C           11.1684    -1.7502    24.7274 C             1 Polymer 
     312 C           10.7801    -1.8243    26.2440 C             1 Polymer 
     313 C           10.0277    -3.1247    26.6243 C             1 Polymer 
     314 C            9.3349    -3.1709    28.0248 C             1 Polymer 
     315 C            7.8110    -2.7759    28.1004 C             1 Polymer 
     316 C            7.1606    -3.3411    29.4162 C             1 Polymer 
     317 C            7.2563    -4.8905    29.6231 C             1 Polymer 
     318 C            6.2597    -5.4259    30.6810 C             1 Polymer 
     319 C            6.3936    -6.9403    30.9044 C             1 Polymer 
     320 C            7.5406    -1.2394    27.8260 C             1 Polymer 
     321 C            6.0590    -0.7279    27.7309 C             1 Polymer 
     322 C            5.9479     0.7374    27.1810 C             1 Polymer 
     323 C            4.5197     1.3745    27.1592 C             1 Polymer 
     324 C            3.5559     0.9109    26.0527 C             1 Polymer 
     325 C            3.8119     1.4707    24.6496 C             1 Polymer 
     326 H           13.8558    -3.0160    16.0136 H             1 Polymer 
     327 H           12.5763    -3.9201    15.1987 H             1 Polymer 
     328 H           11.4407    -3.9969    17.6360 H             1 Polymer 
     329 H           12.8115    -5.0591    17.2657 H             1 Polymer 
     330 H           14.3735    -4.0917    18.7460 H             1 Polymer 
     331 H           13.5899    -2.6480    18.8922 H             1 Polymer 
     332 H           11.5510    -3.8672    20.0848 H             1 Polymer 
     333 H           12.7185    -5.2081    20.1103 H             1 Polymer 
     334 H           12.8843    -4.6093    22.2354 H             1 Polymer 
     335 H           14.1816    -3.5171    21.7554 H             1 Polymer 
     336 H           11.1673    -2.8293    22.1956 H             1 Polymer 
     337 H           12.4365    -1.5884    22.1554 H             1 Polymer 
     338 H           13.2154    -2.5329    24.4736 H             1 Polymer 
     339 H           11.9094    -3.7665    24.3291 H             1 Polymer 
     340 H           10.2059    -1.9217    24.2548 H             1 Polymer 
     341 H           11.5003    -0.7101    24.5159 H             1 Polymer 
     342 H           11.6570    -1.6720    26.9087 H             1 Polymer 
     343 H           10.0937    -0.9736    26.4262 H             1 Polymer 
     344 H            9.2612    -3.3961    25.8677 H             1 Polymer 
     345 H           10.8098    -3.9131    26.6027 H             1 Polymer 
     346 H            9.3507    -4.2538    28.2481 H             1 Polymer 
     347 H            9.9430    -2.6824    28.8144 H             1 Polymer 
     348 H            7.3040    -3.3109    27.2898 H             1 Polymer 
     349 H            6.1077    -3.1438    29.3120 H             1 Polymer 
     350 H            7.5247    -2.8204    30.3268 H             1 Polymer 
     351 H            8.2867    -5.1658    29.9375 H             1 Polymer 
     352 H            7.0216    -5.4101    28.6679 H             1 Polymer 
     353 H            6.4172    -4.9180    31.6552 H             1 Polymer 
     354 H            5.2215    -5.2246    30.3365 H             1 Polymer 
     355 H            5.6307    -7.2827    31.6389 H             1 Polymer 
     356 H            7.3969    -7.1939    31.3094 H             1 Polymer 
     357 H            6.2350    -7.5021    29.9587 H             1 Polymer 
     358 H            8.0701    -0.6274    28.5845 H             1 Polymer 
     359 H            7.9677    -1.0346    26.8293 H             1 Polymer 
     360 H            5.5908    -0.7763    28.7354 H             1 Polymer 
     361 H            5.5061    -1.3717    27.0506 H             1 Polymer 
     362 H            6.5467     1.3644    27.8698 H             1 Polymer 
     363 H            6.3912     0.8087    26.1647 H             1 Polymer 
     364 H            4.0477     1.1621    28.1425 H             1 Polymer 
     365 H            4.5927     2.4782    27.0599 H             1 Polymer 
     366 H            3.6278    -0.1650    26.0145 H             1 Polymer 
     367 H            2.5184     1.2248    26.3230 H             1 Polymer 
     368 H            3.7219     2.5773    24.6474 H             1 Polymer 
     369 H            4.8027     1.1674    24.2655 H             1 Polymer 
     370 H            3.0351     1.0836    23.9502 H             1 Polymer 
     371 C           11.8791    -1.0474    16.9966 C             1 Polymer 
     372 C           13.1656    -0.5236    17.6675 C             1 Polymer 
     373 C           12.9408    -0.3611    19.2247 C             1 Polymer 
     374 C           14.2594    -0.2810    20.0598 C             1 Polymer 
     375 C           14.6187     1.1460    20.4907 C             1 Polymer 
     376 C           14.7305     2.0373    19.2719 C             1 Polymer 
     377 C           14.6569     3.5333    19.5549 C             1 Polymer 
     378 C           14.4402     4.2142    18.1917 C             1 Polymer 
     379 C           13.7353     5.5692    18.2146 C             1 Polymer 
     380 C           12.3339     5.5112    18.8966 C             1 Polymer 
     381 C           11.4076     6.5767    18.2901 C             1 Polymer 
     382 C            9.8804     6.7121    18.7204 C             1 Polymer 
     383 C            9.5768     8.2190    18.4410 C             1 Polymer 
     384 C            9.2207     9.0724    19.6850 C             1 Polymer 
     385 C            9.0166    10.5712    19.3258 C             1 Polymer 
     386 C            8.7805    11.4589    20.5309 C             1 Polymer 
     387 C            8.8453     5.7161    17.9322 C             1 Polymer 
     388 C            7.2677     5.6817    18.1747 C             1 Polymer 
     389 C            6.3529     4.6270    17.4399 C             1 Polymer 
     390 C            4.8086     4.4258    17.7870 C             1 Polymer 
     391 C            4.0234     4.0137    19.0993 C             1 Polymer 
     392 C            3.7169     2.5461    19.5368 C             1 Polymer 
     393 H           11.2511    -0.1529    16.9006 H             1 Polymer 
     394 H           11.3748    -1.7468    17.6805 H             1 Polymer 
     395 H           13.5099     0.4036    17.1657 H             1 Polymer 
     396 H           13.9873    -1.2364    17.4810 H             1 Polymer 
     397 H           12.2353     0.4397    19.4929 H             1 Polymer 
     398 H           12.3916    -1.2393    19.6074 H             1 Polymer 
     399 H           15.0914    -0.7896    19.5272 H             1 Polymer 
     400 H           14.1274    -0.8340    21.0098 H             1 Polymer 
     401 H           13.7893     1.5035    21.1425 H             1 Polymer 
     402 H           15.5584     1.1610    21.0844 H             1 Polymer 
     403 H           13.8114     1.8541    18.7090 H             1 Polymer 
     404 H           15.5975     1.7530    18.6400 H             1 Polymer 
     405 H           15.5490     3.9260    20.0869 H             1 Polymer 
     406 H           13.7649     3.6864    20.1987 H             1 Polymer 
     407 H           13.7558     3.5972    17.5745 H             1 Polymer 
     408 H           15.3965     4.2380    17.6271 H             1 Polymer 
     409 H           14.3599     6.3731    18.6490 H             1 Polymer 
     410 H           13.5995     5.7903    17.1305 H             1 Polymer 
     411 H           11.9193     4.5345    18.7556 H             1 Polymer 
     412 H           12.4340     5.6288    19.9969 H             1 Polymer 
     413 H           11.9739     7.4846    18.5921 H             1 Polymer 
     414 H           11.4314     6.5344    17.1762 H             1 Polymer 
     415 H            9.8363     6.5435    19.8174 H             1 Polymer 
     416 H            8.9220     8.2401    17.5860 H             1 Polymer 
     417 H           10.4548     8.7634    18.0248 H             1 Polymer 
     418 H           10.0691     9.0053    20.3959 H             1 Polymer 
     419 H            8.3303     8.6788    20.2094 H             1 Polymer 
     420 H            9.8902    10.9548    18.7577 H             1 Polymer 
     421 H            8.1212    10.7278    18.7212 H             1 Polymer 
     422 H            8.5808    12.4941    20.1722 H             1 Polymer 
     423 H            9.6757    11.4684    21.1802 H             1 Polymer 
     424 H            7.8897    11.1084    21.0941 H             1 Polymer 
     425 H            9.0801     4.6932    18.0630 H             1 Polymer 
     426 H            9.0820     5.8452    16.8860 H             1 Polymer 
     427 H            6.8982     6.5578    17.6876 H             1 Polymer 
     428 H            7.0945     5.5913    19.2675 H             1 Polymer 
     429 H            6.2560     4.9588    16.4050 H             1 Polymer 
     430 H            6.9165     3.7068    17.3640 H             1 Polymer 
     431 H            4.3787     5.4126    17.5446 H             1 Polymer 
     432 H            4.4169     3.7285    17.0240 H             1 Polymer 
     433 H            4.3248     4.6144    19.9758 H             1 Polymer 
     434 H            3.0057     4.3223    18.8148 H             1 Polymer 
     435 H            3.3891     1.9159    18.6773 H             1 Polymer 
     436 H            4.5059     2.0517    20.1076 H             1 Polymer 
     437 H            2.9099     2.4782    20.2860 H             1 Polymer 
     438 H           14.7156     0.0659    12.2066 H             1 Polymer 
     439 H           -1.5270     4.0994     8.7231 H             1 Polymer 
@<TRIPOS>BOND
       1        2        1 1
       2        9        1 1
       3      170        1 1
       4      237        1 1
       5        3        2 1
       6       18        2 1
       7        4        3 1
       8       16        3 1
       9        5        4 1
      10        9        4 1
      11        6        5 1
      12       19        5 1
      13        7        6 1
      14       12        6 1
      15        8        7 1
      16       10        7 1
      17        9        8 1
      18       20        8 1
      19       11       10 1
      20       15       10 1
      21       12       11 1
      22       13       11 1
      23      304       12 1
      24      371       12 1
      25       14       13 1
      26       21       13 1
      27       15       14 1
      28      438       14 1
      29       17       16 1
      30       18       17 1
      31       32       17 1
      32       22       18 1
      33       24       23 1
      34       30       23 1
      35       36       23 1
      36      103       23 1
      37       25       24 1
      38       28       24 1
      39       26       25 1
      40       29       25 1
      41       27       26 1
      42       28       27 1
      43      439       27 1
      44       34       28 1
      45       30       29 1
      46       33       29 1
      47       31       30 1
      48       32       31 1
      49       35       31 1
      50       33       32 1
      51       37       36 1
      52       58       36 1
      53       59       36 1
      54       38       37 1
      55       60       37 1
      56       61       37 1
      57       39       38 1
      58       62       38 1
      59       63       38 1
      60       40       39 1
      61       64       39 1
      62       65       39 1
      63       41       40 1
      64       66       40 1
      65       67       40 1
      66       42       41 1
      67       68       41 1
      68       69       41 1
      69       43       42 1
      70       70       42 1
      71       71       42 1
      72       44       43 1
      73       72       43 1
      74       73       43 1
      75       45       44 1
      76       74       44 1
      77       75       44 1
      78       46       45 1
      79       76       45 1
      80       77       45 1
      81       47       46 1
      82       78       46 1
      83       79       46 1
      84       48       47 1
      85       52       47 1
      86       80       47 1
      87       49       48 1
      88       81       48 1
      89       82       48 1
      90       50       49 1
      91       83       49 1
      92       84       49 1
      93       51       50 1
      94       85       50 1
      95       86       50 1
      96       87       51 1
      97       88       51 1
      98       89       51 1
      99       53       52 1
     100       90       52 1
     101       91       52 1
     102       54       53 1
     103       92       53 1
     104       93       53 1
     105       55       54 1
     106       94       54 1
     107       95       54 1
     108       56       55 1
     109       96       55 1
     110       97       55 1
     111       57       56 1
     112       98       56 1
     113       99       56 1
     114      100       57 1
     115      101       57 1
     116      102       57 1
     117      104      103 1
     118      125      103 1
     119      126      103 1
     120      105      104 1
     121      127      104 1
     122      128      104 1
     123      106      105 1
     124      129      105 1
     125      130      105 1
     126      107      106 1
     127      131      106 1
     128      132      106 1
     129      108      107 1
     130      133      107 1
     131      134      107 1
     132      109      108 1
     133      135      108 1
     134      136      108 1
     135      110      109 1
     136      137      109 1
     137      138      109 1
     138      111      110 1
     139      139      110 1
     140      140      110 1
     141      112      111 1
     142      141      111 1
     143      142      111 1
     144      113      112 1
     145      143      112 1
     146      144      112 1
     147      114      113 1
     148      145      113 1
     149      146      113 1
     150      115      114 1
     151      119      114 1
     152      147      114 1
     153      116      115 1
     154      148      115 1
     155      149      115 1
     156      117      116 1
     157      150      116 1
     158      151      116 1
     159      118      117 1
     160      152      117 1
     161      153      117 1
     162      154      118 1
     163      155      118 1
     164      156      118 1
     165      120      119 1
     166      157      119 1
     167      158      119 1
     168      121      120 1
     169      159      120 1
     170      160      120 1
     171      122      121 1
     172      161      121 1
     173      162      121 1
     174      123      122 1
     175      163      122 1
     176      164      122 1
     177      124      123 1
     178      165      123 1
     179      166      123 1
     180      167      124 1
     181      168      124 1
     182      169      124 1
     183      171      170 1
     184      192      170 1
     185      193      170 1
     186      172      171 1
     187      194      171 1
     188      195      171 1
     189      173      172 1
     190      196      172 1
     191      197      172 1
     192      174      173 1
     193      198      173 1
     194      199      173 1
     195      175      174 1
     196      200      174 1
     197      201      174 1
     198      176      175 1
     199      202      175 1
     200      203      175 1
     201      177      176 1
     202      204      176 1
     203      205      176 1
     204      178      177 1
     205      206      177 1
     206      207      177 1
     207      179      178 1
     208      208      178 1
     209      209      178 1
     210      180      179 1
     211      210      179 1
     212      211      179 1
     213      181      180 1
     214      212      180 1
     215      213      180 1
     216      182      181 1
     217      186      181 1
     218      214      181 1
     219      183      182 1
     220      215      182 1
     221      216      182 1
     222      184      183 1
     223      217      183 1
     224      218      183 1
     225      185      184 1
     226      219      184 1
     227      220      184 1
     228      221      185 1
     229      222      185 1
     230      223      185 1
     231      187      186 1
     232      224      186 1
     233      225      186 1
     234      188      187 1
     235      226      187 1
     236      227      187 1
     237      189      188 1
     238      228      188 1
     239      229      188 1
     240      190      189 1
     241      230      189 1
     242      231      189 1
     243      191      190 1
     244      232      190 1
     245      233      190 1
     246      234      191 1
     247      235      191 1
     248      236      191 1
     249      238      237 1
     250      259      237 1
     251      260      237 1
     252      239      238 1
     253      261      238 1
     254      262      238 1
     255      240      239 1
     256      263      239 1
     257      264      239 1
     258      241      240 1
     259      265      240 1
     260      266      240 1
     261      242      241 1
     262      267      241 1
     263      268      241 1
     264      243      242 1
     265      269      242 1
     266      270      242 1
     267      244      243 1
     268      271      243 1
     269      272      243 1
     270      245      244 1
     271      273      244 1
     272      274      244 1
     273      246      245 1
     274      275      245 1
     275      276      245 1
     276      247      246 1
     277      277      246 1
     278      278      246 1
     279      248      247 1
     280      279      247 1
     281      280      247 1
     282      249      248 1
     283      253      248 1
     284      281      248 1
     285      250      249 1
     286      282      249 1
     287      283      249 1
     288      251      250 1
     289      284      250 1
     290      285      250 1
     291      252      251 1
     292      286      251 1
     293      287      251 1
     294      288      252 1
     295      289      252 1
     296      290      252 1
     297      254      253 1
     298      291      253 1
     299      292      253 1
     300      255      254 1
     301      293      254 1
     302      294      254 1
     303      256      255 1
     304      295      255 1
     305      296      255 1
     306      257      256 1
     307      297      256 1
     308      298      256 1
     309      258      257 1
     310      299      257 1
     311      300      257 1
     312      301      258 1
     313      302      258 1
     314      303      258 1
     315      305      304 1
     316      326      304 1
     317      327      304 1
     318      306      305 1
     319      328      305 1
     320      329      305 1
     321      307      306 1
     322      330      306 1
     323      331      306 1
     324      308      307 1
     325      332      307 1
     326      333      307 1
     327      309      308 1
     328      334      308 1
     329      335      308 1
     330      310      309 1
     331      336      309 1
     332      337      309 1
     333      311      310 1
     334      338      310 1
     335      339      310 1
     336      312      311 1
     337      340      311 1
     338      341      311 1
     339      313      312 1
     340      342      312 1
     341      343      312 1
     342      314      313 1
     343      344      313 1
     344      345      313 1
     345      315      314 1
     346      346      314 1
     347      347      314 1
     348      316      315 1
     349      320      315 1
     350      348      315 1
     351      317      316 1
     352      349      316 1
     353      350      316 1
     354      318      317 1
     355      351      317 1
     356      352      317 1
     357      319      318 1
     358      353      318 1
     359      354      318 1
     360      355      319 1
     361      356      319 1
     362      357      319 1
     363      321      320 1
     364      358      320 1
     365      359      320 1
     366      322      321 1
     367      360      321 1
     368      361      321 1
     369      323      322 1
     370      362      322 1
     371      363      322 1
     372      324      323 1
     373      364      323 1
     374      365      323 1
     375      325      324 1
     376      366      324 1
     377      367      324 1
     378      368      325 1
     379      369      325 1
     380      370      325 1
     381      372      371 1
     382      393      371 1
     383      394      371 1
     384      373      372 1
     385      395      372 1
     386      396      372 1
     387      374      373 1
     388      397      373 1
     389      398      373 1
     390      375      374 1
     391      399      374 1
     392      400      374 1
     393      376      375 1
     394      401      375 1
     395      402      375 1
     396      377      376 1
     397      403      376 1
     398      404      376 1
     399      378      377 1
     400      405      377 1
     401      406      377 1
     402      379      378 1
     403      407      378 1
     404      408      378 1
     405      380      379 1
     406      409      379 1
     407      410      379 1
     408      381      380 1
     409      411      380 1
     410      412      380 1
     411      382      381 1
     412      413      381 1
     413      414      381 1
     414      383      382 1
     415      387      382 1
     416      415      382 1
     417      384      383 1
     418      416      383 1
     419      417      383 1
     420      385      384 1
     421      418      384 1
     422      419      384 1
     423      386      385 1
     424      420      385 1
     425      421      385 1
     426      422      386 1
     427      423      386 1
     428      424      386 1
     429      388      387 1
     430      425      387 1
     431      426      387 1
     432      389      388 1
     433      427      388 1
     434      428      388 1
     435      390      389 1
     436      429      389 1
     437      430      389 1
     438      391      390 1
     439      431      390 1
     440      432      390 1
     441      392      391 1
     442      433      391 1
     443      434      391 1
     444      435      392 1
     445      436      392 1
     446      437      392 1
@<TRIPOS>SUBSTRUCTURE
       1 Polymer         1 RESIDUE    0 **** ROOT      0
