@<TRIPOS>MOLECULE
Compound
439 446 1 0 1
SMALL
NO_CHARGES
@<TRIPOS>CRYSIN
   20.7087    34.0446    21.8688    90.0000    90.0000    90.0000  1  1
@<TRIPOS>ATOM
       1 C            1.6708    -1.2746     1.4628 C             1 Compound
       2 C            2.6395    -0.9479     0.3382 C             1 Compound
       3 C            1.9446    -0.4366    -0.8738 C             1 Compound
       4 C            0.5046    -0.5870    -0.4682 C             1 Compound
       5 C           -0.6267     0.1316    -0.9075 C             1 Compound
       6 C           -1.8530    -0.1316    -0.2534 C             1 Compound
       7 C           -1.9602    -1.1884     0.6381 C             1 Compound
       8 C           -0.8439    -1.9033     1.1003 C             1 Compound
       9 C            0.4033    -1.4688     0.6185 C             1 Compound
      10 C           -3.3174    -1.2313     1.1002 C             1 Compound
      11 C           -4.0117    -0.1696     0.6267 C             1 Compound
      12 C           -3.1392     0.7354    -0.2238 C             1 Compound
      13 C           -5.3350    -0.1350     1.0612 C             1 Compound
      14 C           -5.6362    -1.2242     1.8965 C             1 Compound
      15 S           -4.2459    -2.1976     2.0962 S             1 Compound
      16 S            2.7633     1.1537    -1.1090 S             1 Compound
      17 C            4.3173     0.2049    -0.7605 C             1 Compound
      18 C            3.9498    -0.7502     0.3420 C             1 Compound
      19 H           -0.5216     0.9284    -1.6293 H             1 Compound
      20 H           -0.9526    -2.5584     1.9482 H             1 Compound
      21 H           -6.0458     0.6396     0.8082 H             1 Compound
      22 H           -6.5857    -1.3991     2.3619 H             1 Compound
      23 H            4.5651    -0.9128     1.2115 H             1 Compound
      24 C            5.1643    -2.1755    -5.4020 C             1 Compound
      25 C            5.8152    -1.1538    -6.3550 C             1 Compound
      26 C            6.2303    -0.0468    -5.6940 C             1 Compound
      27 S            6.9841     1.0549    -6.7024 S             1 Compound
      28 C            6.7555     0.0930    -8.0792 C             1 Compound
      29 C            6.1006    -1.0908    -7.7298 C             1 Compound
      30 C            5.8333    -0.1465    -4.3304 C             1 Compound
      31 C            5.2100    -1.3360    -4.1102 C             1 Compound
      32 C            4.6802    -1.4425    -2.8053 C             1 Compound
      33 C            4.9213    -0.2586    -2.0641 C             1 Compound
      34 S            5.7971     0.8531    -3.0049 S             1 Compound
      35 H            7.0674     0.3570    -9.0808 H             1 Compound
      36 H            5.8556    -1.8437    -8.4622 H             1 Compound
      37 H            4.0841    -2.2757    -2.4587 H             1 Compound
      38 C            1.3433     0.1433     2.1194 C             1 Compound
      39 C            0.0256     0.2124     2.9647 C             1 Compound
      40 C           -0.1361     0.7907     4.3718 C             1 Compound
      41 C            0.4131     2.1563     4.7632 C             1 Compound
      42 C            0.2624     3.3527     3.8311 C             1 Compound
      43 C            1.1960     3.2379     2.6401 C             1 Compound
      44 C            1.7291     4.5597     2.1766 C             1 Compound
      45 C            2.7885     4.3017     1.0965 C             1 Compound
      46 C            3.4909     5.5559     0.5869 C             1 Compound
      47 C            2.4481     6.5893     0.0759 C             1 Compound
      48 C            2.8302     7.8567    -0.7274 C             1 Compound
      49 C            3.3322     7.6959    -2.1914 C             1 Compound
      50 C            3.8369     9.0536    -2.7575 C             1 Compound
      51 C            2.9079    10.2526    -2.4473 C             1 Compound
      52 C            3.3246    11.5447    -3.1469 C             1 Compound
      53 C            2.2973    12.6458    -2.8673 C             1 Compound
      54 C            4.3132     6.5038    -2.2120 C             1 Compound
      55 C            5.1832     6.1243    -3.3886 C             1 Compound
      56 C            5.7817     4.7263    -3.1459 C             1 Compound
      57 C            6.7953     4.3135    -4.2190 C             1 Compound
      58 C            6.2512     4.3602    -5.6549 C             1 Compound
      59 C            4.9508     3.5720    -5.8342 C             1 Compound
      60 H            2.2139     0.6668     2.5192 H             1 Compound
      61 H            1.1926     0.8737     1.3130 H             1 Compound
      62 H           -0.7135     0.6880     2.3136 H             1 Compound
      63 H           -0.3453    -0.8028     3.1520 H             1 Compound
      64 H           -1.2384     0.8133     4.5390 H             1 Compound
      65 H            0.2817     0.0694     5.1076 H             1 Compound
      66 H            1.4857     2.0507     4.9531 H             1 Compound
      67 H           -0.0642     2.4084     5.7350 H             1 Compound
      68 H           -0.7635     3.5302     3.4918 H             1 Compound
      69 H            0.5947     4.2147     4.4491 H             1 Compound
      70 H            0.6614     2.7589     1.8038 H             1 Compound
      71 H            2.1086     2.7013     2.9565 H             1 Compound
      72 H            2.1909     5.0338     3.0481 H             1 Compound
      73 H            0.8903     5.1850     1.8199 H             1 Compound
      74 H            2.3020     3.7800     0.2673 H             1 Compound
      75 H            3.5678     3.5946     1.4376 H             1 Compound
      76 H            4.1405     5.9754     1.3561 H             1 Compound
      77 H            4.1849     5.1419    -0.1517 H             1 Compound
      78 H            1.7929     6.0309    -0.5571 H             1 Compound
      79 H            1.8956     6.9542     0.9668 H             1 Compound
      80 H            1.9064     8.4734    -0.7746 H             1 Compound
      81 H            3.5609     8.4370    -0.1721 H             1 Compound
      82 H            2.4922     7.4253    -2.8482 H             1 Compound
      83 H            3.9174     8.9468    -3.8566 H             1 Compound
      84 H            4.8154     9.3023    -2.3479 H             1 Compound
      85 H            2.8792    10.4448    -1.3535 H             1 Compound
      86 H            1.8929    10.0315    -2.7748 H             1 Compound
      87 H            4.3250    11.8641    -2.7856 H             1 Compound
      88 H            3.3692    11.3764    -4.2446 H             1 Compound
      89 H            2.5950    13.5823    -3.3818 H             1 Compound
      90 H            2.2204    12.8423    -1.7763 H             1 Compound
      91 H            1.2956    12.3429    -3.2445 H             1 Compound
      92 H            5.0178     6.6277    -1.3697 H             1 Compound
      93 H            3.6414     5.6284    -2.0848 H             1 Compound
      94 H            6.0419     6.7948    -3.4046 H             1 Compound
      95 H            4.5907     6.1473    -4.3241 H             1 Compound
      96 H            6.3075     4.7024    -2.1645 H             1 Compound
      97 H            4.9629     3.9765    -3.0962 H             1 Compound
      98 H            7.6868     4.9765    -4.1613 H             1 Compound
      99 H            7.1334     3.2812    -3.9858 H             1 Compound
     100 H            6.0736     5.4122    -5.9617 H             1 Compound
     101 H            7.0371     3.9498    -6.3234 H             1 Compound
     102 H            5.0628     2.5316    -5.4801 H             1 Compound
     103 H            4.1209     4.0332    -5.2628 H             1 Compound
     104 H            4.6677     3.5682    -6.9065 H             1 Compound
     105 C            2.0889    -2.2085     2.6858 C             1 Compound
     106 C            3.0468    -1.4743     3.7337 C             1 Compound
     107 C            3.0577    -1.8991     5.1977 C             1 Compound
     108 C            3.8619    -0.9073     6.1344 C             1 Compound
     109 C            3.5403     0.6503     6.2377 C             1 Compound
     110 C            4.1815     1.5925     5.1409 C             1 Compound
     111 C            4.1834     3.1741     5.3805 C             1 Compound
     112 C            5.0102     3.8952     4.2429 C             1 Compound
     113 C            5.4711     5.4203     4.1981 C             1 Compound
     114 C            4.4427     6.5827     4.0812 C             1 Compound
     115 C            4.9784     8.0293     3.7182 C             1 Compound
     116 C            5.1346     8.4917     2.1948 C             1 Compound
     117 C            4.9032    10.0403     2.0297 C             1 Compound
     118 C            3.4182    10.4818     2.1546 C             1 Compound
     119 C            3.2061    11.9058     1.5948 C             1 Compound
     120 C            1.7233    12.2694     1.5016 C             1 Compound
     121 C            6.4198     8.0006     1.3794 C             1 Compound
     122 C            6.6140     8.6743    -0.0565 C             1 Compound
     123 C            7.5914     8.0108    -1.0737 C             1 Compound
     124 C            8.1164     8.9032    -2.2726 C             1 Compound
     125 C            7.3359     9.6365    -3.4282 C             1 Compound
     126 C            6.8317     8.8709    -4.6739 C             1 Compound
     127 H            1.1579    -2.4378     3.2415 H             1 Compound
     128 H            2.4991    -3.1807     2.3468 H             1 Compound
     129 H            4.0729    -1.3578     3.3388 H             1 Compound
     130 H            2.6353    -0.5122     3.9812 H             1 Compound
     131 H            2.0014    -1.9417     5.5591 H             1 Compound
     132 H            3.4839    -2.9191     5.2901 H             1 Compound
     133 H            4.9467    -1.0134     5.9317 H             1 Compound
     134 H            3.6836    -1.3197     7.1529 H             1 Compound
     135 H            2.4512     0.7946     6.3783 H             1 Compound
     136 H            4.0107     0.9800     7.1880 H             1 Compound
     137 H            3.7301     1.3832     4.1553 H             1 Compound
     138 H            5.2475     1.2915     5.0887 H             1 Compound
     139 H            4.6608     3.3785     6.3616 H             1 Compound
     140 H            3.1482     3.5778     5.4103 H             1 Compound
     141 H            4.4913     3.6814     3.3041 H             1 Compound
     142 H            5.9730     3.3445     4.2113 H             1 Compound
     143 H            6.1162     5.6298     5.0778 H             1 Compound
     144 H            6.1045     5.4966     3.2913 H             1 Compound
     145 H            3.6590     6.3880     3.3576 H             1 Compound
     146 H            3.9385     6.6295     5.0719 H             1 Compound
     147 H            4.1400     8.6545     4.0855 H             1 Compound
     148 H            5.8519     8.3240     4.3334 H             1 Compound
     149 H            4.2759     8.0571     1.6844 H             1 Compound
     150 H            5.1089    10.3073     0.9872 H             1 Compound
     151 H            5.5897    10.6374     2.6629 H             1 Compound
     152 H            3.0535    10.4169     3.1985 H             1 Compound
     153 H            2.7960     9.8054     1.5280 H             1 Compound
     154 H            3.7403    12.6475     2.2250 H             1 Compound
     155 H            3.6108    11.9701     0.5587 H             1 Compound
     156 H            1.6135    13.2892     1.0720 H             1 Compound
     157 H            1.2468    12.2472     2.5028 H             1 Compound
     158 H            1.1968    11.5585     0.8278 H             1 Compound
     159 H            7.3413     8.2155     1.9610 H             1 Compound
     160 H            6.3350     6.9026     1.2637 H             1 Compound
     161 H            6.9697     9.7131     0.1095 H             1 Compound
     162 H            5.6514     8.7101    -0.5557 H             1 Compound
     163 H            8.5083     7.7645    -0.4967 H             1 Compound
     164 H            7.1903     7.0473    -1.4335 H             1 Compound
     165 H            8.6373     9.7375    -1.7581 H             1 Compound
     166 H            8.8979     8.3024    -2.7861 H             1 Compound
     167 H            6.5626    10.3316    -3.0518 H             1 Compound
     168 H            8.1120    10.2895    -3.8832 H             1 Compound
     169 H            7.5839     8.1450    -5.0501 H             1 Compound
     170 H            5.8589     8.3950    -4.5597 H             1 Compound
     171 H            6.6246     9.5945    -5.4929 H             1 Compound
     172 C           -3.6835     1.0678    -1.6637 C             1 Compound
     173 C           -4.7963     0.1237    -2.1509 C             1 Compound
     174 C           -5.2880     0.3379    -3.5885 C             1 Compound
     175 C           -4.3391    -0.0397    -4.7490 C             1 Compound
     176 C           -3.7361    -1.4626    -4.7111 C             1 Compound
     177 C           -2.4571    -1.5643    -3.8446 C             1 Compound
     178 C           -1.9028    -2.9900    -3.7874 C             1 Compound
     179 C           -0.6573    -3.0524    -2.8607 C             1 Compound
     180 C           -0.0757    -4.4685    -2.6279 C             1 Compound
     181 C           -1.0975    -5.3741    -1.9293 C             1 Compound
     182 C           -0.7201    -6.8577    -1.7674 C             1 Compound
     183 C           -0.2168    -7.3847    -0.4104 C             1 Compound
     184 C           -0.3285    -8.9529    -0.3674 C             1 Compound
     185 C           -1.7898    -9.4727    -0.4088 C             1 Compound
     186 C           -1.8812   -10.9984    -0.3445 C             1 Compound
     187 C           -3.3438   -11.4465    -0.4112 C             1 Compound
     188 C            1.2053    -6.8717    -0.1016 C             1 Compound
     189 C            1.6559    -7.3344     1.2921 C             1 Compound
     190 C            2.8934    -6.5951     1.7962 C             1 Compound
     191 C            3.3083    -7.0618     3.2076 C             1 Compound
     192 C            2.1955    -6.9978     4.2781 C             1 Compound
     193 C            1.5786    -5.6086     4.4355 C             1 Compound
     194 H           -2.8350     1.1313    -2.3784 H             1 Compound
     195 H           -4.1416     2.0780    -1.6803 H             1 Compound
     196 H           -4.5268    -0.9279    -2.0159 H             1 Compound
     197 H           -5.6755     0.3072    -1.5017 H             1 Compound
     198 H           -6.1887    -0.3042    -3.6976 H             1 Compound
     199 H           -5.6188     1.3933    -3.7196 H             1 Compound
     200 H           -3.5349     0.6928    -4.8740 H             1 Compound
     201 H           -4.9713     0.0371    -5.6620 H             1 Compound
     202 H           -4.5226    -2.1851    -4.3975 H             1 Compound
     203 H           -3.4278    -1.7258    -5.7466 H             1 Compound
     204 H           -2.6455    -1.2563    -2.8101 H             1 Compound
     205 H           -1.6840    -0.8827    -4.2432 H             1 Compound
     206 H           -1.6479    -3.3526    -4.8064 H             1 Compound
     207 H           -2.7253    -3.6118    -3.3955 H             1 Compound
     208 H           -0.9260    -2.6322    -1.8688 H             1 Compound
     209 H            0.1350    -2.4155    -3.3075 H             1 Compound
     210 H            0.2046    -4.9059    -3.6120 H             1 Compound
     211 H            0.8369    -4.3856    -2.0056 H             1 Compound
     212 H           -1.4627    -4.9521    -0.9685 H             1 Compound
     213 H           -1.9442    -5.3909    -2.6351 H             1 Compound
     214 H           -1.6866    -7.3316    -1.8255 H             1 Compound
     215 H           -0.1230    -7.2162    -2.6216 H             1 Compound
     216 H           -0.8934    -6.9909     0.3822 H             1 Compound
     217 H            0.0729    -9.3362     0.5888 H             1 Compound
     218 H            0.2644    -9.3939    -1.1979 H             1 Compound
     219 H           -2.2969    -9.1957    -1.3435 H             1 Compound
     220 H           -2.3526    -9.0342     0.4452 H             1 Compound
     221 H           -1.3362   -11.4358    -1.2093 H             1 Compound
     222 H           -1.4256   -11.3700     0.5976 H             1 Compound
     223 H           -3.4023   -12.5542    -0.3858 H             1 Compound
     224 H           -3.8169   -11.0909    -1.3532 H             1 Compound
     225 H           -3.9141   -11.0379     0.4506 H             1 Compound
     226 H            1.9384    -7.1971    -0.8721 H             1 Compound
     227 H            1.1591    -5.7616    -0.1009 H             1 Compound
     228 H            1.8726    -8.4225     1.2921 H             1 Compound
     229 H            0.8196    -7.1238     1.9882 H             1 Compound
     230 H            3.7436    -6.7622     1.0995 H             1 Compound
     231 H            2.6791    -5.5072     1.8155 H             1 Compound
     232 H            3.6556    -8.1168     3.1506 H             1 Compound
     233 H            4.1674    -6.4385     3.5358 H             1 Compound
     234 H            1.3898    -7.7243     4.0397 H             1 Compound
     235 H            2.6300    -7.3093     5.2519 H             1 Compound
     236 H            2.3599    -4.8737     4.7054 H             1 Compound
     237 H            1.0766    -5.2832     3.5007 H             1 Compound
     238 H            0.8112    -5.6341     5.2376 H             1 Compound
     239 C           -2.7790     2.0304     0.6019 C             1 Compound
     240 C           -3.9488     2.9805     1.0002 C             1 Compound
     241 C           -4.5304     2.7927     2.4278 C             1 Compound
     242 C           -3.7699     3.3933     3.6479 C             1 Compound
     243 C           -3.7323     4.9476     3.6922 C             1 Compound
     244 C           -2.4868     5.6063     3.0701 C             1 Compound
     245 C           -2.7059     7.1088     2.8181 C             1 Compound
     246 C           -1.3986     7.7855     2.3777 C             1 Compound
     247 C           -1.5856     9.2311     1.8681 C             1 Compound
     248 C           -2.2085     9.2696     0.4551 C             1 Compound
     249 C           -2.1363    10.6740    -0.1818 C             1 Compound
     250 C           -2.3377    10.7282    -1.7413 C             1 Compound
     251 C           -2.1826    12.1936    -2.2352 C             1 Compound
     252 C           -3.3063    13.1298    -1.7514 C             1 Compound
     253 C           -3.1035    14.5516    -2.2923 C             1 Compound
     254 C           -4.2562    15.4674    -1.8883 C             1 Compound
     255 C           -1.2943     9.7872    -2.4259 C             1 Compound
     256 C           -1.0587     9.8955    -3.9501 C             1 Compound
     257 C           -0.0591     8.7952    -4.3948 C             1 Compound
     258 C            0.7896     9.1765    -5.6223 C             1 Compound
     259 C            0.0672     9.0974    -6.9689 C             1 Compound
     260 C           -0.1990     7.6479    -7.3803 C             1 Compound
     261 H           -2.0234     2.5458    -0.0036 H             1 Compound
     262 H           -2.2585     1.8040     1.5417 H             1 Compound
     263 H           -3.6477     4.0354     0.9356 H             1 Compound
     264 H           -4.7618     2.8597     0.2606 H             1 Compound
     265 H           -5.5282     3.2818     2.4365 H             1 Compound
     266 H           -4.6968     1.7214     2.6312 H             1 Compound
     267 H           -2.7874     2.9257     3.8354 H             1 Compound
     268 H           -4.4018     3.0976     4.5155 H             1 Compound
     269 H           -4.6720     5.3301     3.2421 H             1 Compound
     270 H           -3.7274     5.2805     4.7559 H             1 Compound
     271 H           -2.2120     5.1366     2.1094 H             1 Compound
     272 H           -1.6394     5.4762     3.7742 H             1 Compound
     273 H           -3.0647     7.6177     3.7401 H             1 Compound
     274 H           -3.4828     7.2041     2.0325 H             1 Compound
     275 H           -0.8990     7.1954     1.5793 H             1 Compound
     276 H           -0.7134     7.7926     3.2542 H             1 Compound
     277 H           -0.5600     9.6556     1.7790 H             1 Compound
     278 H           -2.1515     9.8521     2.5944 H             1 Compound
     279 H           -1.5777     8.5991    -0.1271 H             1 Compound
     280 H           -3.2494     8.8842     0.4341 H             1 Compound
     281 H           -2.8623    11.3155     0.3551 H             1 Compound
     282 H           -1.1203    11.0828     0.0113 H             1 Compound
     283 H           -3.3532    10.3764    -2.0287 H             1 Compound
     284 H           -2.2383    12.2093    -3.3434 H             1 Compound
     285 H           -1.1894    12.5898    -1.9276 H             1 Compound
     286 H           -3.3351    13.1867    -0.6452 H             1 Compound
     287 H           -4.2797    12.7330    -2.1159 H             1 Compound
     288 H           -2.1525    14.9656    -1.8910 H             1 Compound
     289 H           -3.0433    14.5312    -3.4021 H             1 Compound
     290 H           -4.0739    16.4904    -2.2802 H             1 Compound
     291 H           -4.3446    15.5196    -0.7824 H             1 Compound
     292 H           -5.2113    15.0910    -2.3136 H             1 Compound
     293 H           -0.3074     9.9692    -1.9469 H             1 Compound
     294 H           -1.5951     8.7492    -2.2280 H             1 Compound
     295 H           -0.6002    10.8915    -4.1233 H             1 Compound
     296 H           -1.9943     9.8192    -4.5446 H             1 Compound
     297 H            0.6665     8.6397    -3.5895 H             1 Compound
     298 H           -0.5501     7.8116    -4.4878 H             1 Compound
     299 H            1.1835    10.2052    -5.4658 H             1 Compound
     300 H            1.6757     8.5050    -5.6750 H             1 Compound
     301 H           -0.8719     9.6892    -6.9481 H             1 Compound
     302 H            0.7396     9.5342    -7.7399 H             1 Compound
     303 H            0.7596     7.0843    -7.4247 H             1 Compound
     304 H           -0.8750     7.1413    -6.6670 H             1 Compound
     305 H           -0.6613     7.6242    -8.3883 H             1 Compound
     306 C            6.0606    -3.4566    -5.2851 C             1 Compound
     307 C            6.1477    -4.2860    -6.5842 C             1 Compound
     308 C            7.1739    -5.4146    -6.5705 C             1 Compound
     309 C            6.8852    -6.6211    -5.6653 C             1 Compound
     310 C            5.6024    -7.4076    -6.0233 C             1 Compound
     311 C            4.3558    -6.9909    -5.2173 C             1 Compound
     312 C            3.1406    -7.8748    -5.5856 C             1 Compound
     313 C            2.0719    -7.8494    -4.4813 C             1 Compound
     314 C            0.8742    -8.7899    -4.7588 C             1 Compound
     315 C           -0.2774    -8.1313    -5.5495 C             1 Compound
     316 C           -1.4981    -9.0970    -5.6826 C             1 Compound
     317 C           -2.9093    -8.4210    -5.5454 C             1 Compound
     318 C           -4.0448    -9.4147    -5.9049 C             1 Compound
     319 C           -4.1198    -9.8120    -7.3812 C             1 Compound
     320 C           -5.3783   -10.6652    -7.6116 C             1 Compound
     321 C           -5.5643   -11.0108    -9.0818 C             1 Compound
     322 C           -3.1083    -7.9854    -4.0630 C             1 Compound
     323 C           -4.4039    -7.2295    -3.6752 C             1 Compound
     324 C           -4.5213    -7.0842    -2.1379 C             1 Compound
     325 C           -5.7928    -6.3540    -1.6781 C             1 Compound
     326 C           -5.8170    -4.8506    -2.0025 C             1 Compound
     327 C           -4.7664    -4.0623    -1.2186 C             1 Compound
     328 H            7.0897    -3.1277    -5.0157 H             1 Compound
     329 H            5.6900    -4.1060    -4.4640 H             1 Compound
     330 H            5.1676    -4.7095    -6.8636 H             1 Compound
     331 H            6.4907    -3.6254    -7.3955 H             1 Compound
     332 H            7.2448    -5.8022    -7.6125 H             1 Compound
     333 H            8.1705    -4.9919    -6.3138 H             1 Compound
     334 H            6.9229    -6.3694    -4.5844 H             1 Compound
     335 H            7.7416    -7.3030    -5.8660 H             1 Compound
     336 H            5.4306    -7.4007    -7.1217 H             1 Compound
     337 H            5.7916    -8.4633    -5.7270 H             1 Compound
     338 H            4.0833    -5.9247    -5.3414 H             1 Compound
     339 H            4.6180    -7.1510    -4.1476 H             1 Compound
     340 H            3.4760    -8.9331    -5.6588 H             1 Compound
     341 H            2.7331    -7.5664    -6.5720 H             1 Compound
     342 H            1.7258    -6.8187    -4.2506 H             1 Compound
     343 H            2.5806    -8.2374    -3.5701 H             1 Compound
     344 H            1.2172    -9.7450    -5.2115 H             1 Compound
     345 H            0.4402    -9.0490    -3.7694 H             1 Compound
     346 H           -0.5483    -7.2250    -4.9801 H             1 Compound
     347 H            0.0404    -7.7767    -6.5539 H             1 Compound
     348 H           -1.3697    -9.6318    -6.6458 H             1 Compound
     349 H           -1.4570    -9.8806    -4.8930 H             1 Compound
     350 H           -2.9744    -7.5371    -6.2163 H             1 Compound
     351 H           -5.0137    -8.9254    -5.7026 H             1 Compound
     352 H           -3.9729   -10.3242    -5.2663 H             1 Compound
     353 H           -3.2195   -10.3826    -7.6887 H             1 Compound
     354 H           -4.1928    -8.8871    -7.9943 H             1 Compound
     355 H           -5.3101   -11.6029    -7.0175 H             1 Compound
     356 H           -6.2784   -10.1021    -7.2770 H             1 Compound
     357 H           -6.4903   -11.6125    -9.2019 H             1 Compound
     358 H           -4.6996   -11.5986    -9.4526 H             1 Compound
     359 H           -5.6668   -10.0806    -9.6807 H             1 Compound
     360 H           -3.0382    -8.9026    -3.4408 H             1 Compound
     361 H           -2.2929    -7.3075    -3.8167 H             1 Compound
     362 H           -5.3054    -7.7895    -3.9799 H             1 Compound
     363 H           -4.4031    -6.2425    -4.1819 H             1 Compound
     364 H           -4.5519    -8.1094    -1.7068 H             1 Compound
     365 H           -3.6566    -6.5724    -1.6971 H             1 Compound
     366 H           -6.6717    -6.8497    -2.1410 H             1 Compound
     367 H           -5.8880    -6.4631    -0.5746 H             1 Compound
     368 H           -5.6909    -4.6791    -3.0915 H             1 Compound
     369 H           -6.8109    -4.4522    -1.7071 H             1 Compound
     370 H           -4.9120    -4.1966    -0.1270 H             1 Compound
     371 H           -3.7406    -4.3679    -1.4795 H             1 Compound
     372 H           -4.8686    -2.9903    -1.4534 H             1 Compound
     373 C            3.6735    -2.5183    -5.7161 C             1 Compound
     374 C            3.3081    -2.6214    -7.2114 C             1 Compound
     375 C            2.0615    -3.4709    -7.4808 C             1 Compound
     376 C            0.7582    -3.1414    -6.7412 C             1 Compound
     377 C            0.0829    -1.7959    -7.0572 C             1 Compound
     378 C            0.6449    -0.6077    -6.2631 C             1 Compound
     379 C           -0.3049     0.6031    -6.3486 C             1 Compound
     380 C            0.0494     1.6499    -5.2857 C             1 Compound
     381 C           -1.0962     2.6364    -5.0095 C             1 Compound
     382 C           -1.4633     3.6428    -6.1012 C             1 Compound
     383 C           -2.7952     4.4403    -5.8747 C             1 Compound
     384 C           -2.9052     5.4847    -4.7112 C             1 Compound
     385 C           -4.1409     6.4131    -4.8492 C             1 Compound
     386 C           -4.1491     7.2971    -6.0921 C             1 Compound
     387 C           -5.2020     8.4043    -5.9423 C             1 Compound
     388 C           -5.2581     9.2854    -7.1809 C             1 Compound
     389 C           -2.9522     4.8336    -3.3076 C             1 Compound
     390 C           -3.0121     5.8580    -2.1488 C             1 Compound
     391 C           -2.1613     5.4309    -0.9609 C             1 Compound
     392 C           -0.6892     5.8529    -1.0783 C             1 Compound
     393 C            0.0879     5.4627    -2.3513 C             1 Compound
     394 C            0.6549     4.0544    -2.3279 C             1 Compound
     395 H            2.9992    -1.7445    -5.2966 H             1 Compound
     396 H            3.4361    -3.4590    -5.1729 H             1 Compound
     397 H            3.2125    -1.6023    -7.6391 H             1 Compound
     398 H            4.1008    -3.1190    -7.7899 H             1 Compound
     399 H            1.8659    -3.4639    -8.5751 H             1 Compound
     400 H            2.3197    -4.5174    -7.1987 H             1 Compound
     401 H            0.8756    -3.2704    -5.6427 H             1 Compound
     402 H            0.0474    -3.9302    -7.0747 H             1 Compound
     403 H            0.0493    -1.5981    -8.1494 H             1 Compound
     404 H           -0.9651    -1.9234    -6.7086 H             1 Compound
     405 H            1.6666    -0.3212    -6.5799 H             1 Compound
     406 H            0.6823    -0.9311    -5.1994 H             1 Compound
     407 H           -1.3307     0.2459    -6.1277 H             1 Compound
     408 H           -0.3121     1.0437    -7.3672 H             1 Compound
     409 H            1.0041     2.1656    -5.5252 H             1 Compound
     410 H            0.1930     1.1124    -4.3184 H             1 Compound
     411 H           -1.9857     2.0687    -4.7064 H             1 Compound
     412 H           -0.7484     3.1967    -4.1711 H             1 Compound
     413 H           -0.6087     4.3380    -6.2563 H             1 Compound
     414 H           -1.6121     3.0666    -7.0369 H             1 Compound
     415 H           -2.9061     5.0045    -6.8206 H             1 Compound
     416 H           -3.6461     3.7300    -5.8051 H             1 Compound
     417 H           -2.0186     6.1396    -4.7747 H             1 Compound
     418 H           -4.1364     7.1248    -3.9957 H             1 Compound
     419 H           -5.0889     5.8289    -4.7762 H             1 Compound
     420 H           -4.3607     6.6816    -6.9911 H             1 Compound
     421 H           -3.1581     7.7873    -6.2033 H             1 Compound
     422 H           -6.2047     7.9602    -5.7634 H             1 Compound
     423 H           -4.9363     9.0430    -5.0685 H             1 Compound
     424 H           -5.9994    10.0963    -7.0210 H             1 Compound
     425 H           -5.5677     8.6810    -8.0589 H             1 Compound
     426 H           -4.2641     9.7416    -7.3761 H             1 Compound
     427 H           -3.7845     4.1052    -3.2012 H             1 Compound
     428 H           -2.0716     4.2395    -3.1577 H             1 Compound
     429 H           -4.0794     5.9516    -1.8528 H             1 Compound
     430 H           -2.6510     6.8609    -2.4358 H             1 Compound
     431 H           -2.5467     5.9426    -0.0546 H             1 Compound
     432 H           -2.2674     4.3596    -0.8338 H             1 Compound
     433 H           -0.6710     6.9519    -1.0660 H             1 Compound
     434 H           -0.1804     5.5020    -0.1617 H             1 Compound
     435 H           -0.4857     5.6826    -3.2573 H             1 Compound
     436 H            0.9473     6.1226    -2.4624 H             1 Compound
     437 H           -0.1256     3.2992    -2.1204 H             1 Compound
     438 H            1.1807     3.8596    -3.2878 H             1 Compound
     439 H            1.4195     3.9700    -1.5577 H             1 Compound
@<TRIPOS>BOND
       1        2        1 1
       2        9        1 1
       3       38        1 1
       4      105        1 1
       5        3        2 1
       6       18        2 1
       7        4        3 1
       8       16        3 1
       9        5        4 1
      10        9        4 1
      11        6        5 1
      12       19        5 1
      13        7        6 1
      14       12        6 1
      15        8        7 1
      16       10        7 1
      17        9        8 1
      18       20        8 1
      19       11       10 1
      20       15       10 1
      21       12       11 1
      22       13       11 1
      23      172       12 1
      24      239       12 1
      25       14       13 1
      26       21       13 1
      27       15       14 1
      28       22       14 1
      29       17       16 1
      30       18       17 1
      31       33       17 1
      32       23       18 1
      33       25       24 1
      34       31       24 1
      35      306       24 1
      36      373       24 1
      37       26       25 1
      38       29       25 1
      39       27       26 1
      40       30       26 1
      41       28       27 1
      42       29       28 1
      43       35       28 1
      44       36       29 1
      45       31       30 1
      46       34       30 1
      47       32       31 1
      48       33       32 1
      49       37       32 1
      50       34       33 1
      51       39       38 1
      52       60       38 1
      53       61       38 1
      54       40       39 1
      55       62       39 1
      56       63       39 1
      57       41       40 1
      58       64       40 1
      59       65       40 1
      60       42       41 1
      61       66       41 1
      62       67       41 1
      63       43       42 1
      64       68       42 1
      65       69       42 1
      66       44       43 1
      67       70       43 1
      68       71       43 1
      69       45       44 1
      70       72       44 1
      71       73       44 1
      72       46       45 1
      73       74       45 1
      74       75       45 1
      75       47       46 1
      76       76       46 1
      77       77       46 1
      78       48       47 1
      79       78       47 1
      80       79       47 1
      81       49       48 1
      82       80       48 1
      83       81       48 1
      84       50       49 1
      85       54       49 1
      86       82       49 1
      87       51       50 1
      88       83       50 1
      89       84       50 1
      90       52       51 1
      91       85       51 1
      92       86       51 1
      93       53       52 1
      94       87       52 1
      95       88       52 1
      96       89       53 1
      97       90       53 1
      98       91       53 1
      99       55       54 1
     100       92       54 1
     101       93       54 1
     102       56       55 1
     103       94       55 1
     104       95       55 1
     105       57       56 1
     106       96       56 1
     107       97       56 1
     108       58       57 1
     109       98       57 1
     110       99       57 1
     111       59       58 1
     112      100       58 1
     113      101       58 1
     114      102       59 1
     115      103       59 1
     116      104       59 1
     117      106      105 1
     118      127      105 1
     119      128      105 1
     120      107      106 1
     121      129      106 1
     122      130      106 1
     123      108      107 1
     124      131      107 1
     125      132      107 1
     126      109      108 1
     127      133      108 1
     128      134      108 1
     129      110      109 1
     130      135      109 1
     131      136      109 1
     132      111      110 1
     133      137      110 1
     134      138      110 1
     135      112      111 1
     136      139      111 1
     137      140      111 1
     138      113      112 1
     139      141      112 1
     140      142      112 1
     141      114      113 1
     142      143      113 1
     143      144      113 1
     144      115      114 1
     145      145      114 1
     146      146      114 1
     147      116      115 1
     148      147      115 1
     149      148      115 1
     150      117      116 1
     151      121      116 1
     152      149      116 1
     153      118      117 1
     154      150      117 1
     155      151      117 1
     156      119      118 1
     157      152      118 1
     158      153      118 1
     159      120      119 1
     160      154      119 1
     161      155      119 1
     162      156      120 1
     163      157      120 1
     164      158      120 1
     165      122      121 1
     166      159      121 1
     167      160      121 1
     168      123      122 1
     169      161      122 1
     170      162      122 1
     171      124      123 1
     172      163      123 1
     173      164      123 1
     174      125      124 1
     175      165      124 1
     176      166      124 1
     177      126      125 1
     178      167      125 1
     179      168      125 1
     180      169      126 1
     181      170      126 1
     182      171      126 1
     183      173      172 1
     184      194      172 1
     185      195      172 1
     186      174      173 1
     187      196      173 1
     188      197      173 1
     189      175      174 1
     190      198      174 1
     191      199      174 1
     192      176      175 1
     193      200      175 1
     194      201      175 1
     195      177      176 1
     196      202      176 1
     197      203      176 1
     198      178      177 1
     199      204      177 1
     200      205      177 1
     201      179      178 1
     202      206      178 1
     203      207      178 1
     204      180      179 1
     205      208      179 1
     206      209      179 1
     207      181      180 1
     208      210      180 1
     209      211      180 1
     210      182      181 1
     211      212      181 1
     212      213      181 1
     213      183      182 1
     214      214      182 1
     215      215      182 1
     216      184      183 1
     217      188      183 1
     218      216      183 1
     219      185      184 1
     220      217      184 1
     221      218      184 1
     222      186      185 1
     223      219      185 1
     224      220      185 1
     225      187      186 1
     226      221      186 1
     227      222      186 1
     228      223      187 1
     229      224      187 1
     230      225      187 1
     231      189      188 1
     232      226      188 1
     233      227      188 1
     234      190      189 1
     235      228      189 1
     236      229      189 1
     237      191      190 1
     238      230      190 1
     239      231      190 1
     240      192      191 1
     241      232      191 1
     242      233      191 1
     243      193      192 1
     244      234      192 1
     245      235      192 1
     246      236      193 1
     247      237      193 1
     248      238      193 1
     249      240      239 1
     250      261      239 1
     251      262      239 1
     252      241      240 1
     253      263      240 1
     254      264      240 1
     255      242      241 1
     256      265      241 1
     257      266      241 1
     258      243      242 1
     259      267      242 1
     260      268      242 1
     261      244      243 1
     262      269      243 1
     263      270      243 1
     264      245      244 1
     265      271      244 1
     266      272      244 1
     267      246      245 1
     268      273      245 1
     269      274      245 1
     270      247      246 1
     271      275      246 1
     272      276      246 1
     273      248      247 1
     274      277      247 1
     275      278      247 1
     276      249      248 1
     277      279      248 1
     278      280      248 1
     279      250      249 1
     280      281      249 1
     281      282      249 1
     282      251      250 1
     283      255      250 1
     284      283      250 1
     285      252      251 1
     286      284      251 1
     287      285      251 1
     288      253      252 1
     289      286      252 1
     290      287      252 1
     291      254      253 1
     292      288      253 1
     293      289      253 1
     294      290      254 1
     295      291      254 1
     296      292      254 1
     297      256      255 1
     298      293      255 1
     299      294      255 1
     300      257      256 1
     301      295      256 1
     302      296      256 1
     303      258      257 1
     304      297      257 1
     305      298      257 1
     306      259      258 1
     307      299      258 1
     308      300      258 1
     309      260      259 1
     310      301      259 1
     311      302      259 1
     312      303      260 1
     313      304      260 1
     314      305      260 1
     315      307      306 1
     316      328      306 1
     317      329      306 1
     318      308      307 1
     319      330      307 1
     320      331      307 1
     321      309      308 1
     322      332      308 1
     323      333      308 1
     324      310      309 1
     325      334      309 1
     326      335      309 1
     327      311      310 1
     328      336      310 1
     329      337      310 1
     330      312      311 1
     331      338      311 1
     332      339      311 1
     333      313      312 1
     334      340      312 1
     335      341      312 1
     336      314      313 1
     337      342      313 1
     338      343      313 1
     339      315      314 1
     340      344      314 1
     341      345      314 1
     342      316      315 1
     343      346      315 1
     344      347      315 1
     345      317      316 1
     346      348      316 1
     347      349      316 1
     348      318      317 1
     349      322      317 1
     350      350      317 1
     351      319      318 1
     352      351      318 1
     353      352      318 1
     354      320      319 1
     355      353      319 1
     356      354      319 1
     357      321      320 1
     358      355      320 1
     359      356      320 1
     360      357      321 1
     361      358      321 1
     362      359      321 1
     363      323      322 1
     364      360      322 1
     365      361      322 1
     366      324      323 1
     367      362      323 1
     368      363      323 1
     369      325      324 1
     370      364      324 1
     371      365      324 1
     372      326      325 1
     373      366      325 1
     374      367      325 1
     375      327      326 1
     376      368      326 1
     377      369      326 1
     378      370      327 1
     379      371      327 1
     380      372      327 1
     381      374      373 1
     382      395      373 1
     383      396      373 1
     384      375      374 1
     385      397      374 1
     386      398      374 1
     387      376      375 1
     388      399      375 1
     389      400      375 1
     390      377      376 1
     391      401      376 1
     392      402      376 1
     393      378      377 1
     394      403      377 1
     395      404      377 1
     396      379      378 1
     397      405      378 1
     398      406      378 1
     399      380      379 1
     400      407      379 1
     401      408      379 1
     402      381      380 1
     403      409      380 1
     404      410      380 1
     405      382      381 1
     406      411      381 1
     407      412      381 1
     408      383      382 1
     409      413      382 1
     410      414      382 1
     411      384      383 1
     412      415      383 1
     413      416      383 1
     414      385      384 1
     415      389      384 1
     416      417      384 1
     417      386      385 1
     418      418      385 1
     419      419      385 1
     420      387      386 1
     421      420      386 1
     422      421      386 1
     423      388      387 1
     424      422      387 1
     425      423      387 1
     426      424      388 1
     427      425      388 1
     428      426      388 1
     429      390      389 1
     430      427      389 1
     431      428      389 1
     432      391      390 1
     433      429      390 1
     434      430      390 1
     435      392      391 1
     436      431      391 1
     437      432      391 1
     438      393      392 1
     439      433      392 1
     440      434      392 1
     441      394      393 1
     442      435      393 1
     443      436      393 1
     444      437      394 1
     445      438      394 1
     446      439      394 1
@<TRIPOS>SUBSTRUCTURE
       1 Compound        1 RESIDUE    0 **** ROOT      0
