@<TRIPOS>MOLECULE
RES
231 237 1 0 1
SMALL
NO_CHARGES
@<TRIPOS>CRYSIN
   23.4852    33.7695    34.7162    90.0000    90.0000    90.0000 1 1
@<TRIPOS>ATOM
       1 C0          11.9918     8.3275    10.5689 C0            1 RES     
       2 C1          13.0889     9.3149    10.2704 C1            1 RES     
       3 C1          12.6123    10.5495     9.9093 C1            1 RES     
       4 C1          11.1399    10.5375     9.8929 C1            1 RES     
       5 C1          10.1156    11.5009     9.6036 C1            1 RES     
       6 C1           8.7490    11.0625     9.7275 C1            1 RES     
       7 C1           8.5125     9.7571    10.1184 C1            1 RES     
       8 C1           9.4756     8.8595    10.3880 C1            1 RES     
       9 C1          10.8047     9.2378    10.2752 C1            1 RES     
      10 C1           7.1363     9.4823    10.2061 C1            1 RES     
      11 C1           6.4313    10.5601     9.8852 C1            1 RES     
      12 C0           7.3618    11.7399     9.5205 C0            1 RES     
      13 C1           5.0478    10.3057     9.9674 C1            1 RES     
      14 C1           4.7684     8.9940    10.3600 C1            1 RES     
      15 S2           6.2105     8.1473    10.6087 S2            1 RES     
      16 S2          13.9093    11.5819     9.6503 S2            1 RES     
      17 C1          15.1248    10.4072     9.9990 C1            1 RES     
      18 C1          14.4742     9.2025    10.3198 C1            1 RES     
      19 H3          10.3608    12.5120     9.3080 H3            1 RES     
      20 H3           9.1486     7.8863    10.6975 H3            1 RES     
      21 H3           4.2639    11.0187     9.7588 H3            1 RES     
      22 H3          14.9610     8.2804    10.6025 H3            1 RES     
      23 C1          18.8769     9.6016    10.1294 C1            1 RES     
      24 C1          17.4784     9.4671    10.1246 C1            1 RES     
      25 C1          16.6194    10.5935     9.9916 C1            1 RES     
      26 C1          17.2384    11.8580     9.8730 C1            1 RES     
      27 N4          16.5643    13.0292     9.7538 N4            1 RES     
      28 S2          17.7831    14.1434     9.6709 S2            1 RES     
      29 N4          19.1577    13.2346     9.7775 N4            1 RES     
      30 C1          18.6645    11.9774     9.8883 C1            1 RES     
      31 C1          19.4744    10.8559    10.0158 C1            1 RES     
      32 H3          19.4989     8.7206    10.2263 H3            1 RES     
      33 H3          17.0866     8.4671    10.2150 H3            1 RES     
      34 C0          12.0689     7.9320    12.1119 C0            1 RES     
      35 C0          10.6967     7.7958    12.8105 C0            1 RES     
      36 C0          10.6154     7.5993    14.3253 C0            1 RES     
      37 C0          10.9022     6.1949    14.8513 C0            1 RES     
      38 C0          10.1418     5.1104    14.0575 C0            1 RES     
      39 C0          10.0209     3.8054    14.8405 C0            1 RES     
      40 C0           8.8677     3.8913    15.8576 C0            1 RES     
      41 C0           8.8377     2.6491    16.7365 C0            1 RES     
      42 C0           7.6065     2.6247    17.6415 C0            1 RES     
      43 C0           7.6569     1.5983    18.7910 C0            1 RES     
      44 C0           7.8798     0.1145    18.4293 C0            1 RES     
      45 C0           9.3581    -0.2502    18.1457 C0            1 RES     
      46 C0           9.6143    -1.7299    17.8049 C0            1 RES     
      47 C0           9.7346    -2.7173    18.9873 C0            1 RES     
      48 C0           8.4958    -2.9557    19.8601 C0            1 RES     
      49 C0           7.2869    -3.4339    19.0585 C0            1 RES     
      50 H5          12.5462     8.7738    12.6637 H5            1 RES     
      51 H5          12.7201     7.0446    12.2592 H5            1 RES     
      52 H5          10.2011     8.7817    12.7050 H5            1 RES     
      53 H5          10.0989     7.0106    12.3246 H5            1 RES     
      54 H5          11.2178     8.3619    14.8647 H5            1 RES     
      55 H5           9.5472     7.7899    14.5850 H5            1 RES     
      56 H5          11.9878     5.9654    14.8363 H5            1 RES     
      57 H5          10.5754     6.2144    15.9130 H5            1 RES     
      58 H5           9.1143     5.4341    13.7756 H5            1 RES     
      59 H5          10.7155     4.9337    13.1215 H5            1 RES     
      60 H5          10.9960     3.5687    15.3196 H5            1 RES     
      61 H5           9.7693     2.9832    14.1352 H5            1 RES     
      62 H5           8.9692     4.7773    16.5178 H5            1 RES     
      63 H5           7.9097     3.9839    15.2953 H5            1 RES     
      64 H5           8.7992     1.7604    16.0740 H5            1 RES     
      65 H5           9.7640     2.6550    17.3527 H5            1 RES     
      66 H5           7.4838     3.6196    18.1240 H5            1 RES     
      67 H5           6.7092     2.4458    17.0053 H5            1 RES     
      68 H5           8.4186     1.9006    19.5427 H5            1 RES     
      69 H5           6.6631     1.6753    19.2855 H5            1 RES     
      70 H5           7.2145    -0.1769    17.5881 H5            1 RES     
      71 H5           7.5571    -0.4435    19.3173 H5            1 RES     
      72 H5           9.6909     0.2940    17.2547 H5            1 RES     
      73 H5          10.0195     0.0616    18.9830 H5            1 RES     
      74 H5          10.6171    -1.7640    17.3220 H5            1 RES     
      75 H5           8.8856    -2.0793    17.0427 H5            1 RES     
      76 H5          10.0314    -3.6981    18.5550 H5            1 RES     
      77 H5          10.5641    -2.3821    19.6478 H5            1 RES     
      78 H5           8.7523    -3.7387    20.6057 H5            1 RES     
      79 H5           8.2475    -2.0523    20.4446 H5            1 RES     
      80 H5           7.5320    -4.3719    18.5173 H5            1 RES     
      81 H5           6.4410    -3.6292    19.7501 H5            1 RES     
      82 H5           6.9648    -2.6656    18.3264 H5            1 RES     
      83 C0          12.0734     7.1277     9.5367 C0            1 RES     
      84 C0          10.7890     6.2790     9.3998 C0            1 RES     
      85 C0          10.7203     5.1968     8.3133 C0            1 RES     
      86 C0          10.8453     5.6729     6.8436 C0            1 RES     
      87 C0          10.0543     6.9598     6.4904 C0            1 RES     
      88 C0           9.9964     7.2108     4.9712 C0            1 RES     
      89 C0           8.8634     6.4032     4.3130 C0            1 RES     
      90 C0           8.8879     6.5229     2.7833 C0            1 RES     
      91 C0           7.6446     5.8678     2.1660 C0            1 RES     
      92 C0           7.6964     5.5799     0.6493 C0            1 RES     
      93 C0           7.9034     6.7592    -0.3224 C0            1 RES     
      94 C0           9.3716     7.2228    -0.4398 C0            1 RES     
      95 C0           9.6175     8.3621    -1.4502 C0            1 RES     
      96 C0           9.7423     7.9788    -2.9449 C0            1 RES     
      97 C0           8.5070     7.4146    -3.6618 C0            1 RES     
      98 C0           7.2993     8.3468    -3.5895 C0            1 RES     
      99 H5          12.2703     7.5585     8.5315 H5            1 RES     
     100 H5          12.9376     6.4769     9.7876 H5            1 RES     
     101 H5          10.5581     5.8141    10.3799 H5            1 RES     
     102 H5           9.9659     6.9227     9.0873 H5            1 RES     
     103 H5          11.4488     4.3835     8.5107 H5            1 RES     
     104 H5           9.7004     4.7579     8.4127 H5            1 RES     
     105 H5          11.9125     5.8600     6.6002 H5            1 RES     
     106 H5          10.5011     4.8234     6.2157 H5            1 RES     
     107 H5           9.0179     6.9514     6.8933 H5            1 RES     
     108 H5          10.5933     7.8095     6.9605 H5            1 RES     
     109 H5          10.9886     6.9922     4.5185 H5            1 RES     
     110 H5           9.7667     8.2839     4.7866 H5            1 RES     
     111 H5           8.9409     5.3276     4.5753 H5            1 RES     
     112 H5           7.8961     6.7920     4.7056 H5            1 RES     
     113 H5           8.8962     7.5967     2.5050 H5            1 RES     
     114 H5           9.8091     6.0186     2.4194 H5            1 RES     
     115 H5           7.4893     4.8765     2.6463 H5            1 RES     
     116 H5           6.7590     6.4986     2.4043 H5            1 RES     
     117 H5           8.4555     4.7973     0.4328 H5            1 RES     
     118 H5           6.7014     5.1399     0.4130 H5            1 RES     
     119 H5           7.2262     7.6000    -0.0590 H5            1 RES     
     120 H5           7.5898     6.3759    -1.3023 H5            1 RES     
     121 H5           9.6776     7.6284     0.5349 H5            1 RES     
     122 H5          10.0461     6.3705    -0.6738 H5            1 RES     
     123 H5          10.6170     8.7811    -1.1958 H5            1 RES     
     124 H5           8.8825     9.1795    -1.2934 H5            1 RES     
     125 H5          10.0415     8.9033    -3.4868 H5            1 RES     
     126 H5          10.5720     7.2473    -3.0588 H5            1 RES     
     127 H5           8.7720     7.2709    -4.7320 H5            1 RES     
     128 H5           8.2513     6.4113    -3.2778 H5            1 RES     
     129 H5           7.5499     9.3354    -4.0289 H5            1 RES     
     130 H5           6.4575     7.9044    -4.1623 H5            1 RES     
     131 H5           6.9685     8.4873    -2.5405 H5            1 RES     
     132 C0           7.2069    12.1032     8.0026 C0            1 RES     
     133 C0           5.7652    12.3822     7.5426 C0            1 RES     
     134 C0           5.5448    12.4639     6.0355 C0            1 RES     
     135 C0           6.1181    13.6945     5.3396 C0            1 RES     
     136 C0           5.6856    14.9965     6.0426 C0            1 RES     
     137 C0           5.7088    16.1994     5.1087 C0            1 RES     
     138 C0           4.4925    16.1607     4.1604 C0            1 RES     
     139 C0           4.4981    17.3669     3.2403 C0            1 RES     
     140 C0           3.2395    17.4206     2.3758 C0            1 RES     
     141 C0           3.2759    18.4652     1.2430 C0            1 RES     
     142 C0           3.5239    19.9379     1.6381 C0            1 RES     
     143 C0           5.0145    20.2856     1.8817 C0            1 RES     
     144 C0           5.2801    21.7476     2.2859 C0            1 RES     
     145 C0           5.3810    22.7810     1.1432 C0            1 RES     
     146 C0           4.1340    23.0290     0.2878 C0            1 RES     
     147 C0           2.9257    23.4698     1.1121 C0            1 RES     
     148 H5           7.5355    11.2122     7.4205 H5            1 RES     
     149 H5           7.8814    12.9443     7.7321 H5            1 RES     
     150 H5           5.1309    11.5353     7.8275 H5            1 RES     
     151 H5           5.3664    13.2942     7.9951 H5            1 RES     
     152 H5           5.9037    11.5372     5.5381 H5            1 RES     
     153 H5           4.4405    12.5100     5.8906 H5            1 RES     
     154 H5           7.2266    13.6628     5.2702 H5            1 RES     
     155 H5           5.7211    13.6359     4.3070 H5            1 RES     
     156 H5           4.6523    14.9231     6.4494 H5            1 RES     
     157 H5           6.3752    15.1599     6.9001 H5            1 RES     
     158 H5           6.6734    16.2436     4.5551 H5            1 RES     
     159 H5           5.6180    17.1201     5.7267 H5            1 RES     
     160 H5           4.4892    15.2450     3.5353 H5            1 RES     
     161 H5           3.5625    16.1720     4.7725 H5            1 RES     
     162 H5           4.5112    18.2635     3.8908 H5            1 RES     
     163 H5           5.4024    17.3100     2.5953 H5            1 RES     
     164 H5           3.0859    16.4334     1.8882 H5            1 RES     
     165 H5           2.3673    17.6115     3.0394 H5            1 RES     
     166 H5           4.0122    18.1722     0.4650 H5            1 RES     
     167 H5           2.2675    18.4102     0.7773 H5            1 RES     
     168 H5           2.8862    20.2011     2.5087 H5            1 RES     
     169 H5           3.1724    20.5266     0.7832 H5            1 RES     
     170 H5           5.3904    19.7058     2.7266 H5            1 RES     
     171 H5           5.6429    20.0135     1.0063 H5            1 RES     
     172 H5           6.2909    21.7628     2.7537 H5            1 RES     
     173 H5           4.5642    22.0620     3.0755 H5            1 RES     
     174 H5           5.6718    23.7478     1.6084 H5            1 RES     
     175 H5           6.2083    22.4756     0.4653 H5            1 RES     
     176 H5           4.3755    23.8347    -0.4382 H5            1 RES     
     177 H5           3.8940    22.1381    -0.3187 H5            1 RES     
     178 H5           3.1627    24.3975     1.6737 H5            1 RES     
     179 H5           2.0708    23.6685     0.4330 H5            1 RES     
     180 H5           2.6209    22.6811     1.8295 H5            1 RES     
     181 C0           7.1954    12.9162    10.5479 C0            1 RES     
     182 C0           5.7350    13.3221    10.8542 C0            1 RES     
     183 C0           5.5321    14.3959    11.9220 C0            1 RES     
     184 C0           6.0045    14.0432    13.3413 C0            1 RES     
     185 C0           5.5261    12.6538    13.8204 C0            1 RES     
     186 C0           5.6258    12.4946    15.3426 C0            1 RES     
     187 C0           4.4603    13.2245    16.0332 C0            1 RES     
     188 C0           4.5415    13.1157    17.5532 C0            1 RES     
     189 C0           3.2941    13.7303    18.1967 C0            1 RES     
     190 C0           3.3543    13.9548    19.7200 C0            1 RES     
     191 C0           3.5727    12.7256    20.6229 C0            1 RES     
     192 C0           5.0471    12.2734    20.7257 C0            1 RES     
     193 C0           5.2915    11.0679    21.6545 C0            1 RES     
     194 C0           5.4024    11.3526    23.1699 C0            1 RES     
     195 C0           4.1621    11.8804    23.9047 C0            1 RES     
     196 C0           2.9492    10.9632    23.7595 C0            1 RES     
     197 H5           7.6167    12.5692    11.5157 H5            1 RES     
     198 H5           7.7941    13.7924    10.2199 H5            1 RES     
     199 H5           5.2320    13.7042     9.9635 H5            1 RES     
     200 H5           5.1731    12.4476    11.2143 H5            1 RES     
     201 H5           5.9919    15.3543    11.6011 H5            1 RES     
     202 H5           4.4309    14.5554    11.9828 H5            1 RES     
     203 H5           7.1124    14.0787    13.4153 H5            1 RES     
     204 H5           5.6037    14.8505    13.9860 H5            1 RES     
     205 H5           4.4735    12.4529    13.5227 H5            1 RES     
     206 H5           6.1684    11.8909    13.3288 H5            1 RES     
     207 H5           6.6173    12.8490    15.7016 H5            1 RES     
     208 H5           5.5313    11.4150    15.5937 H5            1 RES     
     209 H5           4.4468    14.3002    15.7661 H5            1 RES     
     210 H5           3.5082    12.7638    15.6848 H5            1 RES     
     211 H5           4.5882    12.0403    17.8140 H5            1 RES     
     212 H5           5.4551    13.6494    17.8951 H5            1 RES     
     213 H5           3.1217    14.7357    17.7521 H5            1 RES     
     214 H5           2.4164    13.0944    17.9433 H5            1 RES     
     215 H5           4.1084    14.7320    19.9707 H5            1 RES     
     216 H5           2.3562    14.3740    19.9794 H5            1 RES     
     217 H5           2.9081    11.8938    20.3034 H5            1 RES     
     218 H5           3.2446    13.0472    21.6190 H5            1 RES     
     219 H5           5.3775    11.9381    19.7350 H5            1 RES     
     220 H5           5.7089    13.1150    21.0245 H5            1 RES     
     221 H5           6.2940    10.6688    21.3800 H5            1 RES     
     222 H5           4.5600    10.2612    21.4353 H5            1 RES     
     223 H5           5.6915    10.3941    23.6547 H5            1 RES     
     224 H5           6.2338    12.0718    23.3370 H5            1 RES     
     225 H5           4.4142    11.9575    24.9842 H5            1 RES     
     226 H5           3.9200    12.9075    23.5793 H5            1 RES     
     227 H5           3.1871     9.9486    24.1429 H5            1 RES     
     228 H5           2.1021    11.3777    24.3449 H5            1 RES     
     229 H5           2.6320    10.8857    22.6998 H5            1 RES     
     230 H6           3.7799     8.5779    10.4871 H6            1 RES     
     231 H3          20.5560    10.9504    10.0243 H3            1 RES     
@<TRIPOS>BOND
       1        1        2 1
       2        1        9 1
       3        1       34 1
       4        1       83 1
       5        2        3 1
       6        2       18 1
       7        3        4 1
       8        3       16 1
       9        4        5 1
      10        4        9 1
      11        5        6 1
      12        5       19 1
      13        6        7 1
      14        6       12 1
      15        7        8 1
      16        7       10 1
      17        8        9 1
      18        8       20 1
      19       10       11 1
      20       10       15 1
      21       11       12 1
      22       11       13 1
      23       12      132 1
      24       12      181 1
      25       13       14 1
      26       13       21 1
      27       14       15 1
      28       14      230 1
      29       16       17 1
      30       17       18 1
      31       17       25 1
      32       18       22 1
      33       23       24 1
      34       23       31 1
      35       23       32 1
      36       24       25 1
      37       24       33 1
      38       25       26 1
      39       26       27 1
      40       26       30 1
      41       27       28 1
      42       28       29 1
      43       29       30 1
      44       30       31 1
      45       31      231 1
      46       34       35 1
      47       34       50 1
      48       34       51 1
      49       35       36 1
      50       35       52 1
      51       35       53 1
      52       36       37 1
      53       36       54 1
      54       36       55 1
      55       37       38 1
      56       37       56 1
      57       37       57 1
      58       38       39 1
      59       38       58 1
      60       38       59 1
      61       39       40 1
      62       39       60 1
      63       39       61 1
      64       40       41 1
      65       40       62 1
      66       40       63 1
      67       41       42 1
      68       41       64 1
      69       41       65 1
      70       42       43 1
      71       42       66 1
      72       42       67 1
      73       43       44 1
      74       43       68 1
      75       43       69 1
      76       44       45 1
      77       44       70 1
      78       44       71 1
      79       45       46 1
      80       45       72 1
      81       45       73 1
      82       46       47 1
      83       46       74 1
      84       46       75 1
      85       47       48 1
      86       47       76 1
      87       47       77 1
      88       48       49 1
      89       48       78 1
      90       48       79 1
      91       49       80 1
      92       49       81 1
      93       49       82 1
      94       83       84 1
      95       83       99 1
      96       83      100 1
      97       84       85 1
      98       84      101 1
      99       84      102 1
     100       85       86 1
     101       85      103 1
     102       85      104 1
     103       86       87 1
     104       86      105 1
     105       86      106 1
     106       87       88 1
     107       87      107 1
     108       87      108 1
     109       88       89 1
     110       88      109 1
     111       88      110 1
     112       89       90 1
     113       89      111 1
     114       89      112 1
     115       90       91 1
     116       90      113 1
     117       90      114 1
     118       91       92 1
     119       91      115 1
     120       91      116 1
     121       92       93 1
     122       92      117 1
     123       92      118 1
     124       93       94 1
     125       93      119 1
     126       93      120 1
     127       94       95 1
     128       94      121 1
     129       94      122 1
     130       95       96 1
     131       95      123 1
     132       95      124 1
     133       96       97 1
     134       96      125 1
     135       96      126 1
     136       97       98 1
     137       97      127 1
     138       97      128 1
     139       98      129 1
     140       98      130 1
     141       98      131 1
     142      132      133 1
     143      132      148 1
     144      132      149 1
     145      133      134 1
     146      133      150 1
     147      133      151 1
     148      134      135 1
     149      134      152 1
     150      134      153 1
     151      135      136 1
     152      135      154 1
     153      135      155 1
     154      136      137 1
     155      136      156 1
     156      136      157 1
     157      137      138 1
     158      137      158 1
     159      137      159 1
     160      138      139 1
     161      138      160 1
     162      138      161 1
     163      139      140 1
     164      139      162 1
     165      139      163 1
     166      140      141 1
     167      140      164 1
     168      140      165 1
     169      141      142 1
     170      141      166 1
     171      141      167 1
     172      142      143 1
     173      142      168 1
     174      142      169 1
     175      143      144 1
     176      143      170 1
     177      143      171 1
     178      144      145 1
     179      144      172 1
     180      144      173 1
     181      145      146 1
     182      145      174 1
     183      145      175 1
     184      146      147 1
     185      146      176 1
     186      146      177 1
     187      147      178 1
     188      147      179 1
     189      147      180 1
     190      181      182 1
     191      181      197 1
     192      181      198 1
     193      182      183 1
     194      182      199 1
     195      182      200 1
     196      183      184 1
     197      183      201 1
     198      183      202 1
     199      184      185 1
     200      184      203 1
     201      184      204 1
     202      185      186 1
     203      185      205 1
     204      185      206 1
     205      186      187 1
     206      186      207 1
     207      186      208 1
     208      187      188 1
     209      187      209 1
     210      187      210 1
     211      188      189 1
     212      188      211 1
     213      188      212 1
     214      189      190 1
     215      189      213 1
     216      189      214 1
     217      190      191 1
     218      190      215 1
     219      190      216 1
     220      191      192 1
     221      191      217 1
     222      191      218 1
     223      192      193 1
     224      192      219 1
     225      192      220 1
     226      193      194 1
     227      193      221 1
     228      193      222 1
     229      194      195 1
     230      194      223 1
     231      194      224 1
     232      195      196 1
     233      195      225 1
     234      195      226 1
     235      196      227 1
     236      196      228 1
     237      196      229 1
@<TRIPOS>SUBSTRUCTURE
       1 RES             1 RESIDUE    0 **** ROOT      0
