@<TRIPOS>MOLECULE
UNL
1810 1850 1 0 1
SMALL
NO_CHARGES
@<TRIPOS>CRYSIN
   66.8830    59.9080    58.1320    90.0000    90.0000    90.0000  1  1
@<TRIPOS>ATOM
       1 C0          31.9670    29.0410    30.8540 C0            1 UNL     
       2 C1          33.1200    29.8260    30.1980 C1            1 UNL     
       3 C1          32.7530    31.0900    29.7960 C1            1 UNL     
       4 C1          31.2830    31.2820    30.0530 C1            1 UNL     
       5 C1          30.1590    32.0960    29.5530 C1            1 UNL     
       6 C1          28.7960    31.6440    29.9150 C1            1 UNL     
       7 C1          28.7060    30.6640    30.8390 C1            1 UNL     
       8 C1          29.7290    30.1070    31.4600 C1            1 UNL     
       9 C1          30.9980    30.2580    30.9600 C1            1 UNL     
      10 C1          27.5400    29.8590    30.6420 C1            1 UNL     
      11 C1          26.9790    30.2220    29.5260 C1            1 UNL     
      12 C0          27.3280    31.7160    29.3140 C0            1 UNL     
      13 C1          25.9120    29.2670    29.2300 C1            1 UNL     
      14 C1          25.8350    28.2120    30.1030 C1            1 UNL     
      15 S2          26.9600    28.3720    31.4470 S2            1 UNL     
      16 S2          34.2050    31.9380    29.4280 S2            1 UNL     
      17 C1          35.3360    30.6740    29.8430 C1            1 UNL     
      18 C1          34.5280    29.5810    30.2140 C1            1 UNL     
      19 C1          38.9930    32.0310    30.3440 C1            1 UNL     
      20 F3          39.4950    33.2630    30.5680 F3            1 UNL     
      21 C1          37.5780    31.9440    30.1310 C1            1 UNL     
      22 C1          36.8900    30.7180    29.9910 C1            1 UNL     
      23 C1          37.7350    29.5700    30.0950 C1            1 UNL     
      24 N4          37.2590    28.2990    30.0760 N4            1 UNL     
      25 S2          38.6170    27.3750    30.2380 S2            1 UNL     
      26 N4          39.8390    28.4760    30.3280 N4            1 UNL     
      27 C1          39.1850    29.6580    30.2360 C1            1 UNL     
      28 C1          39.8580    30.8930    30.3510 C1            1 UNL     
      29 C0          44.3600    32.5070    32.5650 C0            1 UNL     
      30 C1          43.4090    31.7880    31.5880 C1            1 UNL     
      31 C1          43.8600    30.5520    31.2280 C1            1 UNL     
      32 C1          45.2030    30.3220    31.8280 C1            1 UNL     
      33 C1          46.3550    29.5170    31.4930 C1            1 UNL     
      34 C1          47.6160    29.9070    32.1610 C1            1 UNL     
      35 C1          47.5420    30.8080    33.1780 C1            1 UNL     
      36 C1          46.4180    31.3660    33.6040 C1            1 UNL     
      37 C1          45.2830    31.2800    32.8300 C1            1 UNL     
      38 C1          48.7650    31.5370    33.2890 C1            1 UNL     
      39 C1          49.5180    31.2420    32.2130 C1            1 UNL     
      40 C0          49.1420    29.8100    31.7670 C0            1 UNL     
      41 C1          50.6340    32.0750    32.1590 C1            1 UNL     
      42 C1          50.7190    32.9740    33.2160 C1            1 UNL     
      43 S2          49.3990    32.7700    34.2460 S2            1 UNL     
      44 S2          42.6020    29.7300    30.4210 S2            1 UNL     
      45 C1          41.3960    30.9700    30.5970 C1            1 UNL     
      46 C1          42.0640    32.0510    31.2170 C1            1 UNL     
      47 C1          52.7920    32.9030    34.5660 C1            1 UNL     
      48 F3          52.3210    31.7890    35.1840 F3            1 UNL     
      49 C1          54.0780    33.3570    34.8890 C1            1 UNL     
      50 C1          54.6150    34.4860    34.2600 C1            1 UNL     
      51 C1          53.8510    35.1510    33.3010 C1            1 UNL     
      52 N4          54.2810    36.2560    32.6410 N4            1 UNL     
      53 S2          53.0020    36.5890    31.6480 S2            1 UNL     
      54 N4          51.9050    35.4010    31.9960 N4            1 UNL     
      55 C1          52.5500    34.6870    32.9530 C1            1 UNL     
      56 C1          52.0130    33.5610    33.5890 C1            1 UNL     
      57 C0          32.6330    27.9220    31.7510 C0            1 UNL     
      58 C0          33.1710    26.5730    31.0370 C0            1 UNL     
      59 C0          32.1400    25.4650    30.5020 C0            1 UNL     
      60 C0          31.5690    25.2920    29.0030 C0            1 UNL     
      61 C0          30.7430    26.2120    27.9470 C0            1 UNL     
      62 C0          31.5460    27.3220    27.1780 C0            1 UNL     
      63 C0          31.2490    27.7450    25.6980 C0            1 UNL     
      64 C0          32.4340    28.6430    25.2080 C0            1 UNL     
      65 C0          33.0020    28.5370    23.7530 C0            1 UNL     
      66 C0          33.5830    27.1380    23.4320 C0            1 UNL     
      67 C0          34.5320    26.9600    22.2000 C0            1 UNL     
      68 C0          36.0410    26.6540    22.5550 C0            1 UNL     
      69 C0          36.8110    25.9240    21.4140 C0            1 UNL     
      70 C0          36.3240    24.4710    21.2050 C0            1 UNL     
      71 C0          37.2650    23.6820    20.2850 C0            1 UNL     
      72 C0          36.8270    22.2230    20.1750 C0            1 UNL     
      73 C0          36.8050    27.9140    23.0740 C0            1 UNL     
      74 C0          38.2720    27.6480    23.5550 C0            1 UNL     
      75 C0          38.9420    28.8930    24.1780 C0            1 UNL     
      76 C0          40.4830    28.7760    24.3200 C0            1 UNL     
      77 C0          41.0240    27.7200    25.3030 C0            1 UNL     
      78 C0          40.8230    28.0940    26.7720 C0            1 UNL     
      79 C0          30.9730    28.1600    30.1090 C0            1 UNL     
      80 C0          29.8650    27.3920    31.0030 C0            1 UNL     
      81 C0          29.6590    27.0170    32.5770 C0            1 UNL     
      82 C0          30.0070    27.7940    33.9670 C0            1 UNL     
      83 C0          29.8780    29.3550    34.3120 C0            1 UNL     
      84 C0          31.1950    30.1720    34.0240 C0            1 UNL     
      85 C0          31.1820    31.7350    33.7270 C0            1 UNL     
      86 C0          32.6420    32.2550    33.5380 C0            1 UNL     
      87 C0          33.0100    33.7640    33.7570 C0            1 UNL     
      88 C0          33.3110    34.6590    32.5270 C0            1 UNL     
      89 C0          33.8880    36.0970    32.8620 C0            1 UNL     
      90 C0          35.4390    36.2730    33.1080 C0            1 UNL     
      91 C0          35.8970    37.7680    33.1990 C0            1 UNL     
      92 C0          35.6740    38.7090    32.0130 C0            1 UNL     
      93 C0          36.4930    40.0000    32.2740 C0            1 UNL     
      94 C0          36.3510    41.0340    31.1710 C0            1 UNL     
      95 C0          36.0100    35.5420    34.3700 C0            1 UNL     
      96 C0          37.5470    35.6680    34.4380 C0            1 UNL     
      97 C0          38.2890    34.7480    35.4100 C0            1 UNL     
      98 C0          39.7680    34.6910    35.0180 C0            1 UNL     
      99 C0          39.9780    33.9550    33.6720 C0            1 UNL     
     100 C0          39.8230    32.4550    33.7740 C0            1 UNL     
     101 C0          27.3240    32.6670    28.0790 C0            1 UNL     
     102 C0          27.5570    34.2120    28.4510 C0            1 UNL     
     103 C0          26.4070    35.2540    28.8770 C0            1 UNL     
     104 C0          25.5050    35.4170    30.1890 C0            1 UNL     
     105 C0          26.1160    35.6520    31.6240 C0            1 UNL     
     106 C0          26.7110    34.4080    32.3280 C0            1 UNL     
     107 C0          27.1660    34.5680    33.7920 C0            1 UNL     
     108 C0          27.8600    33.2550    34.2670 C0            1 UNL     
     109 C0          28.3980    33.2340    35.7260 C0            1 UNL     
     110 C0          29.2770    34.4550    36.0200 C0            1 UNL     
     111 C0          29.9420    34.5220    37.4200 C0            1 UNL     
     112 C0          31.4710    34.2100    37.4740 C0            1 UNL     
     113 C0          32.1610    34.8300    38.7280 C0            1 UNL     
     114 C0          31.9400    36.3360    38.9200 C0            1 UNL     
     115 C0          32.8500    36.8790    40.0260 C0            1 UNL     
     116 C0          32.5830    38.3600    40.2630 C0            1 UNL     
     117 C0          31.8230    32.6890    37.3800 C0            1 UNL     
     118 C0          33.3490    32.4860    37.2760 C0            1 UNL     
     119 C0          33.8510    31.0640    36.9960 C0            1 UNL     
     120 C0          35.3880    31.0200    37.0270 C0            1 UNL     
     121 C0          36.1410    32.0460    36.1440 C0            1 UNL     
     122 C0          36.1740    31.7640    34.6360 C0            1 UNL     
     123 C0          26.1390    32.2190    30.1760 C0            1 UNL     
     124 C0          24.6540    31.7940    29.8040 C0            1 UNL     
     125 C0          23.9380    31.8720    28.3880 C0            1 UNL     
     126 C0          24.1990    31.2920    26.8980 C0            1 UNL     
     127 C0          24.3890    29.7860    26.3870 C0            1 UNL     
     128 C0          25.8780    29.3450    26.0490 C0            1 UNL     
     129 C0          26.1390    27.8370    25.5930 C0            1 UNL     
     130 C0          27.6590    27.6220    25.2000 C0            1 UNL     
     131 C0          28.3320    26.3160    24.5370 C0            1 UNL     
     132 C0          28.7190    25.0430    25.4110 C0            1 UNL     
     133 C0          29.9190    23.9780    25.0030 C0            1 UNL     
     134 C0          31.4340    23.7100    25.6260 C0            1 UNL     
     135 C0          31.8890    22.2300    25.4280 C0            1 UNL     
     136 C0          31.3980    21.3030    26.5600 C0            1 UNL     
     137 C0          32.2240    20.0100    26.5960 C0            1 UNL     
     138 C0          31.8510    19.1440    27.7930 C0            1 UNL     
     139 C0          32.7160    24.5920    25.2870 C0            1 UNL     
     140 C0          33.9960    24.3540    26.2040 C0            1 UNL     
     141 C0          34.7420    25.6150    26.7830 C0            1 UNL     
     142 C0          36.2090    25.8020    26.4180 C0            1 UNL     
     143 C0          36.8690    26.9630    27.1860 C0            1 UNL     
     144 C0          36.2470    28.3610    27.0160 C0            1 UNL     
     145 C0          43.4940    33.5450    33.3870 C0            1 UNL     
     146 C0          43.1080    34.9750    32.6930 C0            1 UNL     
     147 C0          44.1900    36.0830    32.3670 C0            1 UNL     
     148 C0          44.8690    36.2950    30.9360 C0            1 UNL     
     149 C0          45.7280    35.3790    29.9260 C0            1 UNL     
     150 C0          44.9430    34.3190    29.0370 C0            1 UNL     
     151 C0          45.4980    33.7190    27.6670 C0            1 UNL     
     152 C0          44.3830    32.9250    26.9040 C0            1 UNL     
     153 C0          44.2020    33.0980    25.3450 C0            1 UNL     
     154 C0          43.8620    34.5490    24.9030 C0            1 UNL     
     155 C0          43.2370    34.8090    23.4830 C0            1 UNL     
     156 C0          41.6770    35.0550    23.4400 C0            1 UNL     
     157 C0          41.1850    35.7850    22.1500 C0            1 UNL     
     158 C0          41.6720    37.2540    22.0730 C0            1 UNL     
     159 C0          40.9350    38.0490    20.9850 C0            1 UNL     
     160 C0          41.3620    39.5170    20.9920 C0            1 UNL     
     161 C0          40.8430    33.7720    23.7720 C0            1 UNL     
     162 C0          39.3010    34.0050    23.8720 C0            1 UNL     
     163 C0          38.5270    32.7400    24.2990 C0            1 UNL     
     164 C0          36.9880    32.8590    24.1460 C0            1 UNL     
     165 C0          36.2760    33.9170    25.0140 C0            1 UNL     
     166 C0          36.2850    33.5770    26.5000 C0            1 UNL     
     167 C0          45.4710    33.4110    32.0700 C0            1 UNL     
     168 C0          46.4270    34.1510    33.1430 C0            1 UNL     
     169 C0          46.2760    34.3870    34.7620 C0            1 UNL     
     170 C0          45.6390    33.5620    36.0350 C0            1 UNL     
     171 C0          45.5680    31.9890    36.3540 C0            1 UNL     
     172 C0          44.2790    31.2760    35.7900 C0            1 UNL     
     173 C0          44.2190    29.7290    35.4620 C0            1 UNL     
     174 C0          42.7530    29.3320    35.1160 C0            1 UNL     
     175 C0          42.2780    27.8400    35.1270 C0            1 UNL     
     176 C0          42.1970    27.0760    33.7810 C0            1 UNL     
     177 C0          41.5150    25.6550    33.8820 C0            1 UNL     
     178 C0          39.9430    25.5280    33.7760 C0            1 UNL     
     179 C0          39.4620    24.0400    33.8190 C0            1 UNL     
     180 C0          40.0060    23.0390    32.7980 C0            1 UNL     
     181 C0          39.2160    21.7160    32.9590 C0            1 UNL     
     182 C0          39.6710    20.6290    31.9980 C0            1 UNL     
     183 C0          39.1560    26.3030    34.8790 C0            1 UNL     
     184 C0          37.6140    26.1900    34.7570 C0            1 UNL     
     185 C0          36.8560    26.9710    35.8380 C0            1 UNL     
     186 C0          35.3270    26.9230    35.6450 C0            1 UNL     
     187 C0          34.8550    27.4060    34.2630 C0            1 UNL     
     188 C0          35.3970    28.7900    33.9360 C0            1 UNL     
     189 C0          49.2270    28.9170    30.4920 C0            1 UNL     
     190 C0          48.7630    27.3940    30.7420 C0            1 UNL     
     191 C0          49.6640    26.2000    31.3190 C0            1 UNL     
     192 C0          50.2550    25.8920    32.7740 C0            1 UNL     
     193 C0          49.3460    25.7670    34.0580 C0            1 UNL     
     194 C0          48.8100    27.0850    34.6760 C0            1 UNL     
     195 C0          48.0720    26.9610    36.0320 C0            1 UNL     
     196 C0          47.4380    28.3270    36.4320 C0            1 UNL     
     197 C0          46.6730    28.3810    37.7910 C0            1 UNL     
     198 C0          45.6900    27.2130    37.9550 C0            1 UNL     
     199 C0          44.8100    27.2050    39.2380 C0            1 UNL     
     200 C0          43.2940    27.5530    39.0460 C0            1 UNL     
     201 C0          42.3950    26.9140    40.1540 C0            1 UNL     
     202 C0          42.5360    25.3970    40.3370 C0            1 UNL     
     203 C0          41.4190    24.8620    41.2390 C0            1 UNL     
     204 C0          41.5800    23.3660    41.4700 C0            1 UNL     
     205 C0          42.9770    29.0850    38.9270 C0            1 UNL     
     206 C0          41.4730    29.2970    38.6450 C0            1 UNL     
     207 C0          40.9780    30.7100    38.3130 C0            1 UNL     
     208 C0          39.4360    30.7070    38.2370 C0            1 UNL     
     209 C0          38.8180    29.6890    37.2520 C0            1 UNL     
     210 C0          39.1320    30.0240    35.8080 C0            1 UNL     
     211 C0          50.1780    29.1590    32.7200 C0            1 UNL     
     212 C0          51.7230    29.4490    32.5060 C0            1 UNL     
     213 C0          52.5490    29.4260    31.1520 C0            1 UNL     
     214 C0          52.4480    30.1760    29.7220 C0            1 UNL     
     215 C0          52.3670    31.7330    29.3660 C0            1 UNL     
     216 C0          50.9520    32.2590    28.8710 C0            1 UNL     
     217 C0          50.8340    33.8020    28.4850 C0            1 UNL     
     218 C0          49.5320    34.1220    27.6360 C0            1 UNL     
     219 C0          49.1850    35.5830    27.0440 C0            1 UNL     
     220 C0          47.9640    36.3430    27.7050 C0            1 UNL     
     221 C0          47.1750    37.5230    26.9260 C0            1 UNL     
     222 C0          45.6750    37.9680    27.3980 C0            1 UNL     
     223 C0          45.2990    39.4530    27.0910 C0            1 UNL     
     224 C0          45.5090    40.3930    28.3030 C0            1 UNL     
     225 C0          44.6680    41.6760    28.1630 C0            1 UNL     
     226 C0          44.7590    42.5550    29.4080 C0            1 UNL     
     227 C0          44.4460    37.0710    26.9080 C0            1 UNL     
     228 C0          43.0950    37.3320    27.6900 C0            1 UNL     
     229 C0          41.9740    36.2480    27.9050 C0            1 UNL     
     230 C0          40.8270    36.1730    26.9040 C0            1 UNL     
     231 C0          39.5590    35.5560    27.5130 C0            1 UNL     
     232 C0          39.7430    34.0960    27.9050 C0            1 UNL     
     233 C0           2.0130    -1.0330     0.7710 C0            1 UNL     
     234 C1           3.0910    -0.2020     0.2000 C1            1 UNL     
     235 C1           2.7270     1.0250    -0.2630 C1            1 UNL     
     236 C1           1.2570     1.1960    -0.0770 C1            1 UNL     
     237 C1           0.1570     2.0030    -0.6190 C1            1 UNL     
     238 C1          -1.2090     1.5590    -0.2840 C1            1 UNL     
     239 C1          -1.3070     0.5850     0.6340 C1            1 UNL     
     240 C1          -0.2980     0.0050     1.2050 C1            1 UNL     
     241 C1           0.9700     0.1440     0.7940 C1            1 UNL     
     242 C1          -2.5200    -0.1660     0.5420 C1            1 UNL     
     243 C1          -3.0770     0.1490    -0.5840 C1            1 UNL     
     244 C0          -2.6960     1.6570    -0.7990 C0            1 UNL     
     245 C1          -4.1810    -0.8090    -0.7720 C1            1 UNL     
     246 C1          -4.2790    -1.7760     0.1940 C1            1 UNL     
     247 S2          -3.2560    -1.4290     1.5730 S2            1 UNL     
     248 S2           4.0890     1.9340    -0.5940 S2            1 UNL     
     249 C1           5.1670     0.6540    -0.1250 C1            1 UNL     
     250 C1           4.4450    -0.4720     0.1950 C1            1 UNL     
     251 C1           8.5490     2.1650     0.4990 C1            1 UNL     
     252 F3           8.9250     3.4230     0.8830 F3            1 UNL     
     253 C1           7.1810     2.0010     0.3310 C1            1 UNL     
     254 C1           6.6600     0.7150     0.0810 C1            1 UNL     
     255 C1           7.4750    -0.3790     0.1680 C1            1 UNL     
     256 N4           7.0790    -1.6460     0.1230 N4            1 UNL     
     257 S2           8.5190    -2.5170     0.2330 S2            1 UNL     
     258 N4           9.5900    -1.2660     0.2980 N4            1 UNL     
     259 C1           8.8520    -0.1850     0.2260 C1            1 UNL     
     260 C1           9.4320     1.1020     0.3680 C1            1 UNL     
     261 C0          13.9020     2.7200     2.1020 C0            1 UNL     
     262 C1          12.8830     2.1120     1.1590 C1            1 UNL     
     263 C1          13.2720     0.8890     0.6730 C1            1 UNL     
     264 C1          14.5050     0.4780     1.2500 C1            1 UNL     
     265 C1          15.5480    -0.4620     0.9090 C1            1 UNL     
     266 C1          16.7700    -0.2900     1.6570 C1            1 UNL     
     267 C1          16.7350     0.5810     2.7150 C1            1 UNL     
     268 C1          15.6940     1.2830     3.0820 C1            1 UNL     
     269 C1          14.6280     1.3620     2.3160 C1            1 UNL     
     270 C1          17.9910     1.1260     3.0030 C1            1 UNL     
     271 C1          18.7670     0.8170     1.9690 C1            1 UNL     
     272 C0          18.2820    -0.5800     1.4540 C0            1 UNL     
     273 C1          19.9590     1.4960     2.0900 C1            1 UNL     
     274 C1          20.0970     2.1650     3.3130 C1            1 UNL     
     275 S2          18.6860     2.0880     4.1730 S2            1 UNL     
     276 S2          12.0370     0.0660    -0.0240 S2            1 UNL     
     277 C1          10.9030     1.2790     0.4150 C1            1 UNL     
     278 C1          11.5520     2.3870     0.9640 C1            1 UNL     
     279 C1          22.5110     1.7280     3.5620 C1            1 UNL     
     280 F3          22.5290     0.8270     2.6170 F3            1 UNL     
     281 C1          23.7380     1.9260     4.0470 C1            1 UNL     
     282 C1          23.9580     3.0360     4.8070 C1            1 UNL     
     283 C1          22.8980     3.7800     5.3340 C1            1 UNL     
     284 N4          23.0350     4.8640     6.1380 N4            1 UNL     
     285 S2          21.4630     5.3270     6.3620 S2            1 UNL     
     286 N4          20.5980     4.2630     5.4350 N4            1 UNL     
     287 C1          21.5730     3.4650     4.9300 C1            1 UNL     
     288 C1          21.3840     2.4820     3.9420 C1            1 UNL     
     289 C0           2.5110    -2.2180     1.7450 C0            1 UNL     
     290 C0           2.7930    -3.7660     1.3310 C0            1 UNL     
     291 C0           1.7210    -4.8380     0.8380 C0            1 UNL     
     292 C0           1.1590    -5.0550    -0.6490 C0            1 UNL     
     293 C0           0.3300    -4.2500    -1.7970 C0            1 UNL     
     294 C0           1.0540    -3.1620    -2.8160 C0            1 UNL     
     295 C0           0.9500    -2.5820    -4.3430 C0            1 UNL     
     296 C0           2.1110    -1.5630    -4.7460 C0            1 UNL     
     297 C0           2.9300    -1.6220    -6.1360 C0            1 UNL     
     298 C0           3.6220    -2.9600    -6.5790 C0            1 UNL     
     299 C0           4.6490    -3.0810    -7.7800 C0            1 UNL     
     300 C0           6.1630    -3.4010    -7.3920 C0            1 UNL     
     301 C0           6.9520    -4.2060    -8.4780 C0            1 UNL     
     302 C0           6.4570    -5.6690    -8.6420 C0            1 UNL     
     303 C0           7.3590    -6.4730    -9.5940 C0            1 UNL     
     304 C0           6.8700    -7.9150    -9.7450 C0            1 UNL     
     305 C0           6.9450    -2.1180    -6.9310 C0            1 UNL     
     306 C0           8.3990    -2.3740    -6.3920 C0            1 UNL     
     307 C0           9.0310    -1.1160    -5.7400 C0            1 UNL     
     308 C0          10.5640    -1.1830    -5.5110 C0            1 UNL     
     309 C0          11.1280    -2.2460    -4.5430 C0            1 UNL     
     310 C0          10.9020    -1.9510    -3.0570 C0            1 UNL     
     311 C0           1.3880    -1.8980    -0.2120 C0            1 UNL     
     312 C0           0.0420    -2.5140     0.3660 C0            1 UNL     
     313 C0          -0.4100    -2.9540     1.8890 C0            1 UNL     
     314 C0          -0.2440    -2.2780     3.4050 C0            1 UNL     
     315 C0          -0.1310    -0.7120     3.9370 C0            1 UNL     
     316 C0           1.2140     0.1740     3.7890 C0            1 UNL     
     317 C0           1.2400     1.7540     3.4470 C0            1 UNL     
     318 C0           2.7240     2.2890     3.2840 C0            1 UNL     
     319 C0           3.1720     3.7940     3.5420 C0            1 UNL     
     320 C0           3.7020     4.6690     2.3660 C0            1 UNL     
     321 C0           4.3930     6.0530     2.7670 C0            1 UNL     
     322 C0           5.9660     6.1400     3.0140 C0            1 UNL     
     323 C0           6.5010     7.6000     3.1330 C0            1 UNL     
     324 C0           6.1630     8.6240     2.0580 C0            1 UNL     
     325 C0           6.9410     9.9150     2.3880 C0            1 UNL     
     326 C0           6.6020    11.0530     1.4450 C0            1 UNL     
     327 C0           6.4850     5.4500     4.3030 C0            1 UNL     
     328 C0           8.0440     5.2960     4.3480 C0            1 UNL     
     329 C0           8.4920     4.5250     5.5910 C0            1 UNL     
     330 C0           9.9690     4.1870     5.7130 C0            1 UNL     
     331 C0          10.5530     3.5380     4.4880 C0            1 UNL     
     332 C0          10.0110     2.2220     4.0020 C0            1 UNL     
     333 C0          -2.8110     2.6270    -2.0170 C0            1 UNL     
     334 C0          -2.7280     4.2010    -1.6620 C0            1 UNL     
     335 C0          -3.9430     5.1100    -1.0790 C0            1 UNL     
     336 C0          -4.7490     5.1660     0.3240 C0            1 UNL     
     337 C0          -4.1170     5.4180     1.7650 C0            1 UNL     
     338 C0          -3.4100     4.2150     2.4490 C0            1 UNL     
     339 C0          -2.9430     4.3180     3.9090 C0            1 UNL     
     340 C0          -2.1390     3.0260     4.2860 C0            1 UNL     
     341 C0          -1.4830     3.0010     5.6940 C0            1 UNL     
     342 C0          -0.6940     4.2920     5.9410 C0            1 UNL     
     343 C0           0.0580     4.4260     7.2790 C0            1 UNL     
     344 C0           1.5920     4.1690     7.2410 C0            1 UNL     
     345 C0           2.3160     4.7700     8.4840 C0            1 UNL     
     346 C0           2.0140     6.2490     8.7550 C0            1 UNL     
     347 C0           2.8930     6.7920     9.8810 C0            1 UNL     
     348 C0           2.5160     8.2340    10.1960 C0            1 UNL     
     349 C0           1.9520     2.6650     7.0860 C0            1 UNL     
     350 C0           3.4680     2.4710     6.9920 C0            1 UNL     
     351 C0           3.9210     1.0500     6.6680 C0            1 UNL     
     352 C0           5.4410     0.9770     6.6280 C0            1 UNL     
     353 C0           6.1970     1.9990     5.7520 C0            1 UNL     
     354 C0           6.2610     1.9070     4.2030 C0            1 UNL     
     355 C0          -3.7240     2.1960     0.2300 C0            1 UNL     
     356 C0          -5.2160     1.6920     0.1860 C0            1 UNL     
     357 C0          -6.1760     1.7080    -1.0710 C0            1 UNL     
     358 C0          -6.0670     1.3590    -2.6480 C0            1 UNL     
     359 C0          -5.7730    -0.0290    -3.4170 C0            1 UNL     
     360 C0          -4.2920    -0.4520    -3.8540 C0            1 UNL     
     361 C0          -4.0470    -2.0070    -4.2090 C0            1 UNL     
     362 C0          -2.6300    -2.2720    -4.8780 C0            1 UNL     
     363 C0          -1.9730    -3.6640    -5.4590 C0            1 UNL     
     364 C0          -1.2600    -4.7110    -4.4830 C0            1 UNL     
     365 C0          -0.0040    -5.7790    -4.8820 C0            1 UNL     
     366 C0           1.5330    -6.0400    -4.2180 C0            1 UNL     
     367 C0           2.0680    -7.5000    -4.3110 C0            1 UNL     
     368 C0           1.5700    -8.4720    -3.2230 C0            1 UNL     
     369 C0           2.4780    -9.7190    -3.2250 C0            1 UNL     
     370 C0           2.1030   -10.7300    -2.1530 C0            1 UNL     
     371 C0           2.8230    -5.1690    -4.5700 C0            1 UNL     
     372 C0           3.9330    -5.1020    -3.4400 C0            1 UNL     
     373 C0           4.7220    -3.7730    -3.1900 C0            1 UNL     
     374 C0           6.1440    -3.7260    -3.7100 C0            1 UNL     
     375 C0           7.0420    -2.7990    -2.9030 C0            1 UNL     
     376 C0           6.6200    -1.3250    -2.8760 C0            1 UNL     
     377 C0          13.3530     3.8500     3.0500 C0            1 UNL     
     378 C0          13.2370     5.4120     2.6820 C0            1 UNL     
     379 C0          14.4760     6.3720     2.4570 C0            1 UNL     
     380 C0          15.2460     6.5910     1.0720 C0            1 UNL     
     381 C0          16.1440     5.7570    -0.0220 C0            1 UNL     
     382 C0          15.5910     4.6440    -1.1320 C0            1 UNL     
     383 C0          15.9360     4.1200    -2.6500 C0            1 UNL     
     384 C0          14.8740     3.1220    -3.2540 C0            1 UNL     
     385 C0          14.3690     3.2720    -4.7620 C0            1 UNL     
     386 C0          13.8460     4.6670    -5.2370 C0            1 UNL     
     387 C0          13.1050     4.8430    -6.6180 C0            1 UNL     
     388 C0          11.5390     5.1180    -6.5550 C0            1 UNL     
     389 C0          10.9950     5.9290    -7.7810 C0            1 UNL     
     390 C0          11.5070     7.3930    -7.8360 C0            1 UNL     
     391 C0          10.8120     8.2070    -8.9430 C0            1 UNL     
     392 C0          11.3140     9.6520    -8.9700 C0            1 UNL     
     393 C0          10.6980     3.8250    -6.2960 C0            1 UNL     
     394 C0           9.1700     4.0840    -6.0430 C0            1 UNL     
     395 C0           8.4440     2.8320    -5.5010 C0            1 UNL     
     396 C0           6.8920     2.8620    -5.5690 C0            1 UNL     
     397 C0           6.1100     3.9420    -4.7900 C0            1 UNL     
     398 C0           6.1590     3.7810    -3.2770 C0            1 UNL     
     399 C0          14.9920     3.5020     1.4840 C0            1 UNL     
     400 C0          16.2710     3.8690     2.4010 C0            1 UNL     
     401 C0          16.4480     4.2520     3.9700 C0            1 UNL     
     402 C0          15.8400     3.6890     5.3860 C0            1 UNL     
     403 C0          15.6090     2.1610     5.9170 C0            1 UNL     
     404 C0          14.2470     1.3980     5.5320 C0            1 UNL     
     405 C0          14.2200    -0.1850     5.2460 C0            1 UNL     
     406 C0          12.7760    -0.6490     4.8310 C0            1 UNL     
     407 C0          12.3210    -2.1570     4.9430 C0            1 UNL     
     408 C0          12.0580    -2.9700     3.6450 C0            1 UNL     
     409 C0          11.3430    -4.3730     3.8630 C0            1 UNL     
     410 C0           9.7610    -4.4790     3.7640 C0            1 UNL     
     411 C0           9.2390    -5.9450     3.8010 C0            1 UNL     
     412 C0           9.7850    -6.9700     2.8190 C0            1 UNL     
     413 C0           8.9400    -8.2530     2.9820 C0            1 UNL     
     414 C0           9.4270    -9.3850     2.1000 C0            1 UNL     
     415 C0           8.9640    -3.7470     4.8780 C0            1 UNL     
     416 C0           7.4260    -3.6720     4.5820 C0            1 UNL     
     417 C0           6.6140    -2.9430     5.6600 C0            1 UNL     
     418 C0           5.1210    -2.8370     5.3660 C0            1 UNL     
     419 C0           4.7790    -2.2790     3.9980 C0            1 UNL     
     420 C0           5.4290    -0.9680     3.6310 C0            1 UNL     
     421 C0          18.6720    -1.5120     0.2300 C0            1 UNL     
     422 C0          18.8160    -3.1490     0.4640 C0            1 UNL     
     423 C0          19.7400    -4.1440     1.4240 C0            1 UNL     
     424 C0          19.7530    -4.1720     3.0530 C0            1 UNL     
     425 C0          19.5720    -4.2260     4.6600 C0            1 UNL     
     426 C0          18.9270    -2.9010     5.2310 C0            1 UNL     
     427 C0          18.3660    -2.7740     6.6550 C0            1 UNL     
     428 C0          17.5360    -1.4320     6.7560 C0            1 UNL     
     429 C0          16.5730    -1.2840     7.9680 C0            1 UNL     
     430 C0          15.6760    -2.5250     8.0720 C0            1 UNL     
     431 C0          14.6330    -2.5880     9.2010 C0            1 UNL     
     432 C0          13.1460    -2.3220     8.8270 C0            1 UNL     
     433 C0          12.1740    -2.9610     9.8740 C0            1 UNL     
     434 C0          12.3990    -4.4530    10.1610 C0            1 UNL     
     435 C0          11.2950    -5.0170    11.0540 C0            1 UNL     
     436 C0          11.5920    -6.4720    11.4000 C0            1 UNL     
     437 C0          12.8070    -0.8100     8.6180 C0            1 UNL     
     438 C0          11.3190    -0.6480     8.2860 C0            1 UNL     
     439 C0          10.8040     0.7300     7.8690 C0            1 UNL     
     440 C0           9.2690     0.6800     7.8120 C0            1 UNL     
     441 C0           8.6600    -0.4670     6.9730 C0            1 UNL     
     442 C0           8.9290    -0.3220     5.4840 C0            1 UNL     
     443 C0          18.9210    -1.3550     2.6050 C0            1 UNL     
     444 C0          20.5050    -1.1520     2.7280 C0            1 UNL     
     445 C0          21.5820    -1.3090     1.5570 C0            1 UNL     
     446 C0          21.8350    -0.6290     0.0890 C0            1 UNL     
     447 C0          21.7990     0.8860    -0.5060 C0            1 UNL     
     448 C0          20.5040     1.6540    -1.0830 C0            1 UNL     
     449 C0          20.6590     3.2410    -1.4060 C0            1 UNL     
     450 C0          19.4280     3.8640    -2.2140 C0            1 UNL     
     451 C0          19.1960     5.3730    -2.8690 C0            1 UNL     
     452 C0          18.1490     6.3860    -2.1820 C0            1 UNL     
     453 C0          17.0580     7.4550    -2.8960 C0            1 UNL     
     454 C0          15.4580     7.8060    -2.4270 C0            1 UNL     
     455 C0          14.9500     9.2520    -2.6650 C0            1 UNL     
     456 C0          15.2260    10.2360    -1.5090 C0            1 UNL     
     457 C0          14.3310    11.4750    -1.6890 C0            1 UNL     
     458 C0          14.4780    12.4730    -0.5530 C0            1 UNL     
     459 C0          14.2490     6.9120    -2.9520 C0            1 UNL     
     460 C0          12.9860     6.7830    -2.0030 C0            1 UNL     
     461 C0          12.1810     5.4620    -2.1230 C0            1 UNL     
     462 C0          10.9870     5.4700    -3.0660 C0            1 UNL     
     463 C0           9.6590     5.3560    -2.3370 C0            1 UNL     
     464 C0           9.4820     3.9640    -1.7450 C0            1 UNL     
     465 C0          31.7100     2.2530     3.7780 C0            1 UNL     
     466 C1          32.9080     2.8870     3.1740 C1            1 UNL     
     467 C1          32.6440     4.1550     2.6720 C1            1 UNL     
     468 C1          31.2550     4.5320     2.9080 C1            1 UNL     
     469 C1          30.2380     5.4740     2.3960 C1            1 UNL     
     470 C1          28.8600     5.2580     2.8630 C1            1 UNL     
     471 C1          28.7370     4.3380     3.8530 C1            1 UNL     
     472 C1          29.6950     3.6130     4.3590 C1            1 UNL     
     473 C1          30.9030     3.5870     3.8530 C1            1 UNL     
     474 C1          27.4690     3.8090     3.9780 C1            1 UNL     
     475 C1          26.8290     4.1290     2.9000 C1            1 UNL     
     476 C0          27.3430     5.5200     2.4480 C0            1 UNL     
     477 C1          25.5740     3.6170     3.1540 C1            1 UNL     
     478 C1          25.2840     3.5930     4.6490 C1            1 UNL     
     479 S2          26.6740     2.8200     5.2870 S2            1 UNL     
     480 S2          34.0680     4.9460     2.3940 S2            1 UNL     
     481 C1          35.0210     3.6190     2.9550 C1            1 UNL     
     482 C1          34.2300     2.5430     3.2910 C1            1 UNL     
     483 C1          38.3210     5.1100     3.7730 C1            1 UNL     
     484 F3          38.6640     6.3640     4.1410 F3            1 UNL     
     485 C1          36.9870     4.9310     3.4930 C1            1 UNL     
     486 C1          36.4530     3.6830     3.2330 C1            1 UNL     
     487 C1          37.3150     2.5700     3.3130 C1            1 UNL     
     488 N4          36.9070     1.2850     3.2320 N4            1 UNL     
     489 S2          38.3160     0.4330     3.3330 S2            1 UNL     
     490 N4          39.4470     1.6080     3.4990 N4            1 UNL     
     491 C1          38.7050     2.7530     3.4750 C1            1 UNL     
     492 C1          39.2410     4.0300     3.6540 C1            1 UNL     
     493 C0          43.5330     5.9670     5.5720 C0            1 UNL     
     494 C1          42.5920     5.1580     4.7160 C1            1 UNL     
     495 C1          43.0810     3.9290     4.3700 C1            1 UNL     
     496 C1          44.4010     3.7330     4.9060 C1            1 UNL     
     497 C1          45.5230     2.9050     4.5530 C1            1 UNL     
     498 C1          46.7860     3.3090     5.1140 C1            1 UNL     
     499 C1          46.7780     4.3020     6.0470 C1            1 UNL     
     500 C1          45.6970     4.8130     6.5820 C1            1 UNL     
     501 C1          44.5040     4.7270     5.8910 C1            1 UNL     
     502 C1          48.0340     5.0180     6.1080 C1            1 UNL     
     503 C1          48.8640     4.4610     5.2330 C1            1 UNL     
     504 C0          48.2920     3.0480     4.8490 C0            1 UNL     
     505 C1          50.1190     5.1110     5.3270 C1            1 UNL     
     506 C1          50.2220     6.1680     6.2040 C1            1 UNL     
     507 S2          48.7150     6.3640     6.9120 S2            1 UNL     
     508 S2          41.9200     3.0090     3.6210 S2            1 UNL     
     509 C1          40.7030     4.2090     3.8430 C1            1 UNL     
     510 C1          41.2750     5.3540     4.3770 C1            1 UNL     
     511 C1          52.5930     5.8230     7.0250 C1            1 UNL     
     512 F3          52.3940     4.5010     7.1420 F3            1 UNL     
     513 C1          53.8740     6.2690     7.3540 C1            1 UNL     
     514 C1          54.1910     7.6190     7.2860 C1            1 UNL     
     515 C1          53.2010     8.5220     6.9060 C1            1 UNL     
     516 N4          53.4240     9.8530     6.8020 N4            1 UNL     
     517 S2          51.9520    10.4130     6.3020 S2            1 UNL     
     518 N4          51.0140     9.0550     6.2040 N4            1 UNL     
     519 C1          51.8770     8.0800     6.5840 C1            1 UNL     
     520 C1          51.5600     6.7220     6.6250 C1            1 UNL     
     521 C0          32.0060     1.0940     4.8000 C0            1 UNL     
     522 C0          32.1960    -0.4500     4.4090 C0            1 UNL     
     523 C0          31.0000    -1.3820     3.9620 C0            1 UNL     
     524 C0          30.4340    -1.5730     2.4740 C0            1 UNL     
     525 C0          29.6330    -0.7370     1.3250 C0            1 UNL     
     526 C0          30.3930     0.2900     0.2690 C0            1 UNL     
     527 C0          30.3320     0.8510    -1.2770 C0            1 UNL     
     528 C0          31.5790     1.7480    -1.6410 C0            1 UNL     
     529 C0          32.3500     1.6680    -3.0450 C0            1 UNL     
     530 C0          32.8570     0.2830    -3.5890 C0            1 UNL     
     531 C0          33.9640     0.1720    -4.7050 C0            1 UNL     
     532 C0          35.4520    -0.1570    -4.2230 C0            1 UNL     
     533 C0          36.2730    -0.9640    -5.2860 C0            1 UNL     
     534 C0          35.7750    -2.4240    -5.4660 C0            1 UNL     
     535 C0          36.6730    -3.2270    -6.4200 C0            1 UNL     
     536 C0          36.1750    -4.6650    -6.5740 C0            1 UNL     
     537 C0          36.2280     1.1100    -3.7210 C0            1 UNL     
     538 C0          37.7000     0.8640    -3.2120 C0            1 UNL     
     539 C0          38.3250     2.1140    -2.5370 C0            1 UNL     
     540 C0          39.8660     2.0850    -2.3530 C0            1 UNL     
     541 C0          40.4820     1.0140    -1.4270 C0            1 UNL     
     542 C0          40.2190     1.2360     0.0640 C0            1 UNL     
     543 C0          30.8770     1.5040     2.8410 C0            1 UNL     
     544 C0          29.4230     1.1650     3.4160 C0            1 UNL     
     545 C0          28.7840     0.6560     4.8220 C0            1 UNL     
     546 C0          29.0700     1.1000     6.4050 C0            1 UNL     
     547 C0          29.2770     2.5780     7.1430 C0            1 UNL     
     548 C0          30.6220     3.4500     7.0300 C0            1 UNL     
     549 C0          30.6020     5.0480     6.7500 C0            1 UNL     
     550 C0          32.0580     5.5930     6.5010 C0            1 UNL     
     551 C0          32.4820     7.0940     6.7710 C0            1 UNL     
     552 C0          32.9910     7.9560     5.5800 C0            1 UNL     
     553 C0          33.6760     9.3400     5.9640 C0            1 UNL     
     554 C0          35.2490     9.4240     6.1880 C0            1 UNL     
     555 C0          35.7750    10.8850     6.3020 C0            1 UNL     
     556 C0          35.4140    11.9040     5.2320 C0            1 UNL     
     557 C0          36.1870    13.2000     5.5540 C0            1 UNL     
     558 C0          35.8330    14.3330     4.6110 C0            1 UNL     
     559 C0          35.7930     8.7270     7.4650 C0            1 UNL     
     560 C0          37.3540     8.5890     7.4790 C0            1 UNL     
     561 C0          37.8640     7.8550     8.7200 C0            1 UNL     
     562 C0          39.3650     7.5720     8.7560 C0            1 UNL     
     563 C0          39.9040     6.8690     7.5230 C0            1 UNL     
     564 C0          39.3070     5.5410     7.2000 C0            1 UNL     
     565 C0          27.0610     6.3200     1.1270 C0            1 UNL     
     566 C0          26.9140     7.9390     1.2640 C0            1 UNL     
     567 C0          25.7090     8.8300     1.9550 C0            1 UNL     
     568 C0          24.9620     9.1200     3.3960 C0            1 UNL     
     569 C0          25.4700     9.2550     4.9250 C0            1 UNL     
     570 C0          25.9520     7.9900     5.7180 C0            1 UNL     
     571 C0          26.3390     7.9660     7.2050 C0            1 UNL     
     572 C0          27.0470     6.5820     7.5150 C0            1 UNL     
     573 C0          27.7200     6.4200     8.9040 C0            1 UNL     
     574 C0          28.6120     7.6300     9.1930 C0            1 UNL     
     575 C0          29.3550     7.6710    10.5430 C0            1 UNL     
     576 C0          30.8950     7.4440    10.4920 C0            1 UNL     
     577 C0          31.6200     8.0600    11.7230 C0            1 UNL     
     578 C0          31.3140     9.5410    11.9760 C0            1 UNL     
     579 C0          32.2000    10.0990    13.0850 C0            1 UNL     
     580 C0          31.8150    11.5420    13.3830 C0            1 UNL     
     581 C0          31.2820     5.9480    10.3560 C0            1 UNL     
     582 C0          32.8010     5.7840    10.2200 C0            1 UNL     
     583 C0          33.2520     4.3710     9.8760 C0            1 UNL     
     584 C0          34.7680     4.2920     9.7670 C0            1 UNL     
     585 C0          35.5080     5.2940     8.8510 C0            1 UNL     
     586 C0          35.5470     5.1810     7.3020 C0            1 UNL     
     587 C0          26.4040     6.2670     3.4000 C0            1 UNL     
     588 C0          24.8060     6.1920     3.0980 C0            1 UNL     
     589 C0          23.8020     5.4960     2.0460 C0            1 UNL     
     590 C0          23.8750     5.0110     0.5270 C0            1 UNL     
     591 C0          24.1260     3.4920     0.1060 C0            1 UNL     
     592 C0          25.5210     2.9190    -0.3420 C0            1 UNL     
     593 C0          25.5110     1.3610    -0.7520 C0            1 UNL     
     594 C0          26.8200     0.9350    -1.5160 C0            1 UNL     
     595 C0          27.2320    -0.5170    -2.1530 C0            1 UNL     
     596 C0          28.1030    -1.5030    -1.2580 C0            1 UNL     
     597 C0          29.2650    -2.5680    -1.7710 C0            1 UNL     
     598 C0          30.7330    -2.8530    -1.0150 C0            1 UNL     
     599 C0          31.2940    -4.2940    -1.1300 C0            1 UNL     
     600 C0          30.8090    -5.2680    -0.0460 C0            1 UNL     
     601 C0          31.7330    -6.5020    -0.0500 C0            1 UNL     
     602 C0          31.3760    -7.5060     1.0320 C0            1 UNL     
     603 C0          31.9730    -1.9540    -1.4130 C0            1 UNL     
     604 C0          33.2390    -1.9400    -0.4660 C0            1 UNL     
     605 C0          33.9470    -0.5560    -0.2470 C0            1 UNL     
     606 C0          35.4660    -0.5830    -0.3300 C0            1 UNL     
     607 C0          36.0960     0.5460     0.4680 C0            1 UNL     
     608 C0          35.6610     1.9860     0.1650 C0            1 UNL     
     609 C0          42.8570     7.2950     6.2460 C0            1 UNL     
     610 C0          42.8250     8.7940     5.6110 C0            1 UNL     
     611 C0          43.9870     9.8520     5.3610 C0            1 UNL     
     612 C0          45.3440     9.6530     4.5620 C0            1 UNL     
     613 C0          45.7250     8.9450     3.1430 C0            1 UNL     
     614 C0          45.0540     7.8310     2.1020 C0            1 UNL     
     615 C0          45.3500     7.3880     0.5490 C0            1 UNL     
     616 C0          44.2570     6.4210    -0.0400 C0            1 UNL     
     617 C0          43.7370     6.5570    -1.5500 C0            1 UNL     
     618 C0          43.2280     7.9520    -2.0640 C0            1 UNL     
     619 C0          42.4480     8.1070    -3.4310 C0            1 UNL     
     620 C0          40.8810     8.3890    -3.3410 C0            1 UNL     
     621 C0          40.3230     9.2060    -4.5590 C0            1 UNL     
     622 C0          40.8270    10.6710    -4.6240 C0            1 UNL     
     623 C0          40.1200    11.4720    -5.7330 C0            1 UNL     
     624 C0          40.6110    12.9210    -5.7790 C0            1 UNL     
     625 C0          40.0360     7.0950    -3.0890 C0            1 UNL     
     626 C0          38.5050     7.3570    -2.8460 C0            1 UNL     
     627 C0          37.7600     6.1010    -2.3440 C0            1 UNL     
     628 C0          36.2110     6.1660    -2.4330 C0            1 UNL     
     629 C0          35.4560     7.2570    -1.6450 C0            1 UNL     
     630 C0          35.4860     7.0630    -0.1380 C0            1 UNL     
     631 C0          44.5400     6.7130     4.8230 C0            1 UNL     
     632 C0          45.6310     7.2450     5.8160 C0            1 UNL     
     633 C0          45.5800     7.7500     7.3660 C0            1 UNL     
     634 C0          44.8770     7.0900     8.7040 C0            1 UNL     
     635 C0          44.6660     5.5340     9.1460 C0            1 UNL     
     636 C0          43.3870     4.7250     8.6420 C0            1 UNL     
     637 C0          43.4400     3.1540     8.3160 C0            1 UNL     
     638 C0          42.0070     2.6250     7.9390 C0            1 UNL     
     639 C0          41.5960     1.1080     8.0710 C0            1 UNL     
     640 C0          41.3170     0.2870     6.7840 C0            1 UNL     
     641 C0          40.6060    -1.1130     7.0200 C0            1 UNL     
     642 C0          39.0220    -1.2140     6.9460 C0            1 UNL     
     643 C0          38.4960    -2.6790     6.9740 C0            1 UNL     
     644 C0          39.0510    -3.6970     5.9880 C0            1 UNL     
     645 C0          38.2170    -4.9880     6.1410 C0            1 UNL     
     646 C0          38.7250    -6.1150     5.2630 C0            1 UNL     
     647 C0          38.2380    -0.4880     8.0770 C0            1 UNL     
     648 C0          36.6950    -0.4030     7.8020 C0            1 UNL     
     649 C0          35.8990     0.3500     8.8800 C0            1 UNL     
     650 C0          34.3910     0.4370     8.6330 C0            1 UNL     
     651 C0          34.0050     0.9500     7.2570 C0            1 UNL     
     652 C0          34.6090     2.2890     6.8610 C0            1 UNL     
     653 C0          48.4920     2.0540     3.6340 C0            1 UNL     
     654 C0          48.4360     0.4370     3.8680 C0            1 UNL     
     655 C0          49.3730    -0.5730     4.7600 C0            1 UNL     
     656 C0          49.2870    -0.6660     6.3600 C0            1 UNL     
     657 C0          48.9480    -0.7700     7.9140 C0            1 UNL     
     658 C0          48.2940     0.5650     8.4430 C0            1 UNL     
     659 C0          47.6120     0.6210     9.8140 C0            1 UNL     
     660 C0          46.7550     1.9390     9.9180 C0            1 UNL     
     661 C0          45.7730     2.0330    11.1170 C0            1 UNL     
     662 C0          44.9080     0.7690    11.1910 C0            1 UNL     
     663 C0          43.8790     0.6690    12.3270 C0            1 UNL     
     664 C0          42.3920     0.9460    11.9710 C0            1 UNL     
     665 C0          41.4300     0.3270    13.0380 C0            1 UNL     
     666 C0          41.6600    -1.1620    13.3340 C0            1 UNL     
     667 C0          40.5730    -1.7270    14.2460 C0            1 UNL     
     668 C0          40.8830    -3.1800    14.5910 C0            1 UNL     
     669 C0          42.0740     2.4580    11.7450 C0            1 UNL     
     670 C0          40.5880     2.6350    11.4110 C0            1 UNL     
     671 C0          40.1020     4.0180    10.9750 C0            1 UNL     
     672 C0          38.5740     3.9930    10.8600 C0            1 UNL     
     673 C0          37.9720     2.8430    10.0180 C0            1 UNL     
     674 C0          38.2200     2.9480     8.5120 C0            1 UNL     
     675 C0          48.9250     2.3420     6.0170 C0            1 UNL     
     676 C0          50.4900     2.4590     6.1170 C0            1 UNL     
     677 C0          51.5160     2.4260     4.8780 C0            1 UNL     
     678 C0          51.6370     3.0560     3.3540 C0            1 UNL     
     679 C0          51.4850     4.5620     2.7010 C0            1 UNL     
     680 C0          50.1090     5.2310     2.1700 C0            1 UNL     
     681 C0          50.1320     6.8250     1.8290 C0            1 UNL     
     682 C0          48.8660     7.3660     0.9950 C0            1 UNL     
     683 C0          48.5780     8.8580     0.3080 C0            1 UNL     
     684 C0          47.4530     9.8290     0.9470 C0            1 UNL     
     685 C0          46.3000    10.8640     0.2930 C0            1 UNL     
     686 C0          44.7020    11.1130     0.8390 C0            1 UNL     
     687 C0          44.1140    12.5210     0.5870 C0            1 UNL     
     688 C0          44.4190    13.5360     1.6980 C0            1 UNL     
     689 C0          43.5160    14.7610     1.5060 C0            1 UNL     
     690 C0          43.6990    15.7860     2.6110 C0            1 UNL     
     691 C0          43.5350    10.1590     0.3420 C0            1 UNL     
     692 C0          42.2970     9.9680     1.3170 C0            1 UNL     
     693 C0          41.4960     8.6500     1.0770 C0            1 UNL     
     694 C0          40.2450     8.7160     0.1930 C0            1 UNL     
     695 C0          38.9520     8.5810     0.9890 C0            1 UNL     
     696 C0          38.7750     7.1530     1.5040 C0            1 UNL     
     697 H5          30.2860    33.1160    29.9450 H5            1 UNL     
     698 H5          29.7390    30.5130    32.4820 H5            1 UNL     
     699 H5          24.9520    29.8040    29.2550 H5            1 UNL     
     700 H6          24.8120    28.1590    30.5040 H6            1 UNL     
     701 H5          34.8090    29.2810    31.2340 H5            1 UNL     
     702 H5          37.1110    32.4560    30.9850 H5            1 UNL     
     703 H5          46.1330    28.4750    31.7680 H5            1 UNL     
     704 H5          46.1800    30.9050    34.5740 H5            1 UNL     
     705 H5          51.5360    31.4460    32.1670 H5            1 UNL     
     706 H5          41.5050    32.3230    32.1240 H5            1 UNL     
     707 H5          54.0760    33.5690    35.9680 H5            1 UNL     
     708 H5          54.8470    35.2150    35.0500 H5            1 UNL     
     709 H7          33.4910    28.3840    32.2600 H7            1 UNL     
     710 H7          31.8130    27.5740    32.3960 H7            1 UNL     
     711 H7          33.7680    26.8920    30.1690 H7            1 UNL     
     712 H7          33.6910    26.0520    31.8540 H7            1 UNL     
     713 H7          32.6190    24.5020    30.7330 H7            1 UNL     
     714 H7          31.2260    25.8350    30.9900 H7            1 UNL     
     715 H7          32.4740    25.0330    28.4340 H7            1 UNL     
     716 H7          30.6870    24.7150    29.3180 H7            1 UNL     
     717 H7          30.3050    25.5400    27.1940 H7            1 UNL     
     718 H7          30.0150    26.7630    28.5600 H7            1 UNL     
     719 H7          31.4410    28.2380    27.7780 H7            1 UNL     
     720 H7          32.5270    26.8360    27.0670 H7            1 UNL     
     721 H7          31.1700    26.8500    25.0620 H7            1 UNL     
     722 H7          30.2990    28.2970    25.6390 H7            1 UNL     
     723 H7          32.1060    29.6850    25.3360 H7            1 UNL     
     724 H7          33.2740    28.2710    25.8140 H7            1 UNL     
     725 H7          32.1900    28.7510    23.0430 H7            1 UNL     
     726 H7          33.8240    29.2630    23.6670 H7            1 UNL     
     727 H7          34.1470    26.8150    24.3190 H7            1 UNL     
     728 H7          32.6960    26.5470    23.1610 H7            1 UNL     
     729 H7          34.1490    26.1260    21.5930 H7            1 UNL     
     730 H7          34.5320    27.9240    21.6710 H7            1 UNL     
     731 H7          36.0040    25.9410    23.3930 H7            1 UNL     
     732 H7          36.6670    26.4830    20.4780 H7            1 UNL     
     733 H7          37.8720    25.8820    21.7010 H7            1 UNL     
     734 H7          36.2750    23.9670    22.1810 H7            1 UNL     
     735 H7          35.3320    24.5080    20.7300 H7            1 UNL     
     736 H7          37.2550    24.1370    19.2830 H7            1 UNL     
     737 H7          38.2790    23.7130    20.7110 H7            1 UNL     
     738 H7          36.7000    21.8010    21.1830 H7            1 UNL     
     739 H7          35.8720    22.1660    19.6320 H7            1 UNL     
     740 H7          37.5920    21.6490    19.6320 H7            1 UNL     
     741 H7          36.8410    28.6500    22.2580 H7            1 UNL     
     742 H7          36.2510    28.2670    23.9570 H7            1 UNL     
     743 H7          38.2540    26.8470    24.3090 H7            1 UNL     
     744 H7          38.8620    27.3670    22.6700 H7            1 UNL     
     745 H7          38.7180    29.7610    23.5400 H7            1 UNL     
     746 H7          38.5350    28.9990    25.1940 H7            1 UNL     
     747 H7          40.8900    28.5400    23.3250 H7            1 UNL     
     748 H7          40.8020    29.7420    24.7390 H7            1 UNL     
     749 H7          40.5050    26.7690    25.1120 H7            1 UNL     
     750 H7          42.1080    27.6450    25.1330 H7            1 UNL     
     751 H7          41.2460    27.3060    27.4120 H7            1 UNL     
     752 H7          41.3310    29.0470    26.9800 H7            1 UNL     
     753 H7          39.7480    28.1980    26.9800 H7            1 UNL     
     754 H7          30.4370    28.7970    29.3910 H7            1 UNL     
     755 H7          31.5790    27.3620    29.6550 H7            1 UNL     
     756 H7          28.9490    27.9570    30.7760 H7            1 UNL     
     757 H7          30.2290    26.3900    30.7330 H7            1 UNL     
     758 H7          28.5760    26.8380    32.6530 H7            1 UNL     
     759 H7          30.4970    26.3070    32.6330 H7            1 UNL     
     760 H7          29.3830    27.2950    34.7230 H7            1 UNL     
     761 H7          31.1040    27.7400    33.9040 H7            1 UNL     
     762 H7          29.0650    29.7810    33.7050 H7            1 UNL     
     763 H7          29.6770    29.4340    35.3910 H7            1 UNL     
     764 H7          31.8400    30.0330    34.9040 H7            1 UNL     
     765 H7          31.5100    29.7600    33.0540 H7            1 UNL     
     766 H7          30.6050    31.9270    32.8100 H7            1 UNL     
     767 H7          30.7190    32.2600    34.5760 H7            1 UNL     
     768 H7          33.2690    31.6790    34.2340 H7            1 UNL     
     769 H7          32.7990    32.1290    32.4570 H7            1 UNL     
     770 H7          32.1660    34.2260    34.2910 H7            1 UNL     
     771 H7          33.9710    33.7230    34.2900 H7            1 UNL     
     772 H7          34.0460    34.1360    31.8980 H7            1 UNL     
     773 H7          32.3450    34.8270    32.0290 H7            1 UNL     
     774 H7          33.6200    36.7530    32.0210 H7            1 UNL     
     775 H7          33.4420    36.3340    33.8400 H7            1 UNL     
     776 H7          35.8500    35.7950    32.2070 H7            1 UNL     
     777 H7          35.3720    38.2090    34.0580 H7            1 UNL     
     778 H7          36.9930    37.6930    33.2600 H7            1 UNL     
     779 H7          36.0170    38.2300    31.0840 H7            1 UNL     
     780 H7          34.6060    38.9470    31.9060 H7            1 UNL     
     781 H7          36.1490    40.4470    33.2190 H7            1 UNL     
     782 H7          37.5540    39.7110    32.3150 H7            1 UNL     
     783 H7          36.2140    42.0300    31.6180 H7            1 UNL     
     784 H7          37.2580    41.0330    30.5480 H7            1 UNL     
     785 H7          35.4780    40.7890    30.5480 H7            1 UNL     
     786 H7          35.5720    35.9900    35.2730 H7            1 UNL     
     787 H7          35.7500    34.4750    34.3020 H7            1 UNL     
     788 H7          37.9390    35.4680    33.4300 H7            1 UNL     
     789 H7          37.7270    36.6840    34.8200 H7            1 UNL     
     790 H7          38.1940    35.1410    36.4330 H7            1 UNL     
     791 H7          37.8550    33.7380    35.3670 H7            1 UNL     
     792 H7          40.1520    35.7170    34.9260 H7            1 UNL     
     793 H7          40.3070    34.1340    35.7990 H7            1 UNL     
     794 H7          39.2400    34.3330    32.9500 H7            1 UNL     
     795 H7          41.0120    34.1530    33.3540 H7            1 UNL     
     796 H7          39.7930    32.1600    34.8330 H7            1 UNL     
     797 H7          38.8890    32.1480    33.2810 H7            1 UNL     
     798 H7          40.6760    31.9640    33.2810 H7            1 UNL     
     799 H7          28.1250    32.3510    27.3950 H7            1 UNL     
     800 H7          26.3260    32.5950    27.6220 H7            1 UNL     
     801 H7          28.2690    34.2050    29.2900 H7            1 UNL     
     802 H7          27.8220    34.6110    27.4610 H7            1 UNL     
     803 H7          26.9080    36.2290    28.7930 H7            1 UNL     
     804 H7          25.6180    34.8090    28.2530 H7            1 UNL     
     805 H7          24.8410    36.2730    29.9970 H7            1 UNL     
     806 H7          25.0790    34.4080    30.2920 H7            1 UNL     
     807 H7          26.9180    36.3990    31.5290 H7            1 UNL     
     808 H7          25.2730    35.9710    32.2540 H7            1 UNL     
     809 H7          25.9450    33.6200    32.3050 H7            1 UNL     
     810 H7          27.6330    34.1850    31.7700 H7            1 UNL     
     811 H7          27.8770    35.4050    33.8660 H7            1 UNL     
     812 H7          26.2920    34.7720    34.4280 H7            1 UNL     
     813 H7          27.1290    32.4390    34.1710 H7            1 UNL     
     814 H7          28.7510    33.1540    33.6300 H7            1 UNL     
     815 H7          27.5460    33.2320    36.4210 H7            1 UNL     
     816 H7          29.0110    32.3300    35.8530 H7            1 UNL     
     817 H7          30.0800    34.4740    35.2700 H7            1 UNL     
     818 H7          28.5910    35.3150    35.9880 H7            1 UNL     
     819 H7          29.7930    35.5380    37.8130 H7            1 UNL     
     820 H7          29.4600    33.7310    38.0130 H7            1 UNL     
     821 H7          31.8700    34.6890    36.5670 H7            1 UNL     
     822 H7          31.7750    34.3130    39.6190 H7            1 UNL     
     823 H7          33.2430    34.6980    38.5770 H7            1 UNL     
     824 H7          32.1660    36.8580    37.9790 H7            1 UNL     
     825 H7          30.8920    36.5060    39.2090 H7            1 UNL     
     826 H7          32.6590    36.3240    40.9560 H7            1 UNL     
     827 H7          33.8980    36.7540    39.7150 H7            1 UNL     
     828 H7          32.5470    38.5570    41.3450 H7            1 UNL     
     829 H7          33.3880    38.9550    39.8080 H7            1 UNL     
     830 H7          31.6200    38.6360    39.8080 H7            1 UNL     
     831 H7          31.4510    32.1770    38.2790 H7            1 UNL     
     832 H7          31.3500    32.2720    36.4790 H7            1 UNL     
     833 H7          33.7140    33.1310    36.4630 H7            1 UNL     
     834 H7          33.7350    32.7310    38.2760 H7            1 UNL     
     835 H7          33.4540    30.3830    37.7630 H7            1 UNL     
     836 H7          33.5060    30.7550    35.9990 H7            1 UNL     
     837 H7          35.7040    31.1840    38.0680 H7            1 UNL     
     838 H7          35.6530    30.0380    36.6100 H7            1 UNL     
     839 H7          35.6630    33.0260    36.2900 H7            1 UNL     
     840 H7          37.1900    31.9940    36.4710 H7            1 UNL     
     841 H7          36.2970    30.6840    34.4680 H7            1 UNL     
     842 H7          35.2310    32.1010    34.1800 H7            1 UNL     
     843 H7          37.0160    32.3050    34.1800 H7            1 UNL     
     844 H7          26.3220    31.8700    31.2030 H7            1 UNL     
     845 H7          26.1430    33.3050    30.0040 H7            1 UNL     
     846 H7          24.5890    30.7340    30.0900 H7            1 UNL     
     847 H7          24.1170    32.6120    30.3060 H7            1 UNL     
     848 H7          22.9310    31.4910    28.6140 H7            1 UNL     
     849 H7          24.3390    32.8690    28.1540 H7            1 UNL     
     850 H7          23.3460    31.6660    26.3140 H7            1 UNL     
     851 H7          25.2510    31.6030    26.8100 H7            1 UNL     
     852 H7          24.0090    29.1140    27.1710 H7            1 UNL     
     853 H7          23.8400    29.7260    25.4360 H7            1 UNL     
     854 H7          26.2330    29.9960    25.2370 H7            1 UNL     
     855 H7          26.4100    29.4340    27.0080 H7            1 UNL     
     856 H7          25.8830    27.1600    26.4220 H7            1 UNL     
     857 H7          25.5140    27.6210    24.7140 H7            1 UNL     
     858 H7          27.8840    28.4390    24.4980 H7            1 UNL     
     859 H7          28.0850    27.5370    26.2100 H7            1 UNL     
     860 H7          27.6290    25.9620    23.7680 H7            1 UNL     
     861 H7          29.3160    26.6930    24.2220 H7            1 UNL     
     862 H7          28.9890    25.4310    26.4040 H7            1 UNL     
     863 H7          27.8250    24.4150    25.2790 H7            1 UNL     
     864 H7          29.4300    22.9960    25.0840 H7            1 UNL     
     865 H7          30.2520    24.5110    24.1000 H7            1 UNL     
     866 H7          31.1720    24.0400    26.6420 H7            1 UNL     
     867 H7          31.4880    21.8620    24.4730 H7            1 UNL     
     868 H7          32.9890    22.2150    25.4390 H7            1 UNL     
     869 H7          31.4990    21.8240    27.5230 H7            1 UNL     
     870 H7          30.3450    21.0460    26.3750 H7            1 UNL     
     871 H7          32.0410    19.4420    25.6720 H7            1 UNL     
     872 H7          33.2870    20.2800    26.6840 H7            1 UNL     
     873 H7          32.0840    19.6830    28.7230 H7            1 UNL     
     874 H7          30.7750    18.9170    27.7600 H7            1 UNL     
     875 H7          32.4240    18.2050    27.7600 H7            1 UNL     
     876 H7          33.0040    24.3790    24.2470 H7            1 UNL     
     877 H7          32.4130    25.6330    25.4690 H7            1 UNL     
     878 H7          33.6750    23.7430    27.0610 H7            1 UNL     
     879 H7          34.7310    23.8870    25.5310 H7            1 UNL     
     880 H7          34.2010    26.5060    26.4320 H7            1 UNL     
     881 H7          34.7450    25.4590    27.8720 H7            1 UNL     
     882 H7          36.7510    24.8730    26.6510 H7            1 UNL     
     883 H7          36.2570    26.0420    25.3460 H7            1 UNL     
     884 H7          36.8360    26.7140    28.2570 H7            1 UNL     
     885 H7          37.8800    27.0480    26.7600 H7            1 UNL     
     886 H7          36.0520    28.7990    28.0060 H7            1 UNL     
     887 H7          36.9420    29.0070    26.4600 H7            1 UNL     
     888 H7          35.3010    28.2770    26.4600 H7            1 UNL     
     889 H7          42.5480    33.0450    33.6440 H7            1 UNL     
     890 H7          44.1440    33.8260    34.2290 H7            1 UNL     
     891 H7          42.6260    34.7290    31.7350 H7            1 UNL     
     892 H7          42.5220    35.4590    33.4870 H7            1 UNL     
     893 H7          43.7130    37.0430    32.6120 H7            1 UNL     
     894 H7          45.0470    35.7060    32.9450 H7            1 UNL     
     895 H7          44.0210    36.6110    30.3120 H7            1 UNL     
     896 H7          45.7410    36.8370    31.3290 H7            1 UNL     
     897 H7          46.2570    36.0550    29.2390 H7            1 UNL     
     898 H7          46.3700    34.7710    30.5810 H7            1 UNL     
     899 H7          44.7670    33.4530    29.6920 H7            1 UNL     
     900 H7          44.1040    34.9310    28.6740 H7            1 UNL     
     901 H7          45.8500    34.5450    27.0310 H7            1 UNL     
     902 H7          46.3220    33.0280    27.8970 H7            1 UNL     
     903 H7          44.5790    31.8580    27.0820 H7            1 UNL     
     904 H7          43.4540    33.3510    27.3090 H7            1 UNL     
     905 H7          45.1390    32.7980    24.8530 H7            1 UNL     
     906 H7          43.3490    32.4690    25.0530 H7            1 UNL     
     907 H7          43.1520    34.9480    25.6420 H7            1 UNL     
     908 H7          44.8480    35.0320    24.8390 H7            1 UNL     
     909 H7          43.7280    35.6970    23.0590 H7            1 UNL     
     910 H7          43.4040    33.8820    22.9150 H7            1 UNL     
     911 H7          41.4820    35.7630    24.2590 H7            1 UNL     
     912 H7          41.5640    35.2420    21.2720 H7            1 UNL     
     913 H7          40.0850    35.8000    22.1750 H7            1 UNL     
     914 H7          41.4970    37.7380    23.0460 H7            1 UNL     
     915 H7          42.7430    37.2440    21.8200 H7            1 UNL     
     916 H7          41.1660    37.6120    20.0020 H7            1 UNL     
     917 H7          39.8540    37.9980    21.1860 H7            1 UNL     
     918 H7          41.4630    39.8640    22.0310 H7            1 UNL     
     919 H7          42.3280    39.6210    20.4750 H7            1 UNL     
     920 H7          40.6030    40.1230    20.4750 H7            1 UNL     
     921 H7          41.0270    33.0290    22.9820 H7            1 UNL     
     922 H7          41.1720    33.4360    24.7670 H7            1 UNL     
     923 H7          39.1130    34.7970    24.6120 H7            1 UNL     
     924 H7          38.9450    34.2860    22.8700 H7            1 UNL     
     925 H7          38.8720    31.8990    23.6810 H7            1 UNL     
     926 H7          38.7290    32.5910    25.3700 H7            1 UNL     
     927 H7          36.7770    33.0980    23.0930 H7            1 UNL     
     928 H7          36.5920    31.8930    24.4930 H7            1 UNL     
     929 H7          36.7820    34.8830    24.8730 H7            1 UNL     
     930 H7          35.2250    33.9500    24.6920 H7            1 UNL     
     931 H7          36.2600    34.5060    27.0880 H7            1 UNL     
     932 H7          35.4030    32.9660    26.7410 H7            1 UNL     
     933 H7          37.1990    33.0150    26.7410 H7            1 UNL     
     934 H7          46.1230    32.7980    31.4300 H7            1 UNL     
     935 H7          44.9360    34.2390    31.5840 H7            1 UNL     
     936 H7          47.3860    33.6210    33.0460 H7            1 UNL     
     937 H7          46.1830    35.1800    32.8410 H7            1 UNL     
     938 H7          47.3190    34.5360    35.0760 H7            1 UNL     
     939 H7          45.4120    35.0610    34.6640 H7            1 UNL     
     940 H7          46.1640    33.9810    36.9070 H7            1 UNL     
     941 H7          44.5830    33.6880    35.7570 H7            1 UNL     
     942 H7          46.4510    31.5060    35.9110 H7            1 UNL     
     943 H7          45.5320    31.8880    37.4490 H7            1 UNL     
     944 H7          43.4850    31.4590    36.5290 H7            1 UNL     
     945 H7          44.2100    31.7150    34.7840 H7            1 UNL     
     946 H7          44.8710    29.5100    34.6030 H7            1 UNL     
     947 H7          44.5600    29.1540    36.3350 H7            1 UNL     
     948 H7          42.1110    29.8650    35.8330 H7            1 UNL     
     949 H7          42.6860    29.5910    34.0490 H7            1 UNL     
     950 H7          42.9730    27.2840    35.7730 H7            1 UNL     
     951 H7          41.2330    27.8950    35.4660 H7            1 UNL     
     952 H7          41.6180    27.6860    33.0730 H7            1 UNL     
     953 H7          43.2320    26.9060    33.4520 H7            1 UNL     
     954 H7          41.9400    25.0400    33.0740 H7            1 UNL     
     955 H7          41.7270    25.3420    34.9150 H7            1 UNL     
     956 H7          39.7190    25.9840    32.8000 H7            1 UNL     
     957 H7          39.7180    23.6510    34.8160 H7            1 UNL     
     958 H7          38.3930    24.1080    33.5680 H7            1 UNL     
     959 H7          39.8710    23.4330    31.7800 H7            1 UNL     
     960 H7          41.0790    22.8660    32.9650 H7            1 UNL     
     961 H7          39.3490    21.3520    33.9890 H7            1 UNL     
     962 H7          38.1620    21.9340    32.7320 H7            1 UNL     
     963 H7          40.0340    19.7620    32.5710 H7            1 UNL     
     964 H7          38.8260    20.3220    31.3650 H7            1 UNL     
     965 H7          40.4830    21.0160    31.3650 H7            1 UNL     
     966 H7          39.4550    25.9050    35.8600 H7            1 UNL     
     967 H7          39.4060    27.3680    34.7580 H7            1 UNL     
     968 H7          37.3130    26.5770    33.7720 H7            1 UNL     
     969 H7          37.3560    25.1280    34.8840 H7            1 UNL     
     970 H7          37.1000    26.5410    36.8200 H7            1 UNL     
     971 H7          37.1670    28.0240    35.7660 H7            1 UNL     
     972 H7          34.9930    25.8840    35.7800 H7            1 UNL     
     973 H7          34.8900    27.6080    36.3870 H7            1 UNL     
     974 H7          35.2060    26.6960    33.4990 H7            1 UNL     
     975 H7          33.7570    27.4610    34.2760 H7            1 UNL     
     976 H7          35.6080    29.3310    34.8700 H7            1 UNL     
     977 H7          36.3230    28.6920    33.3510 H7            1 UNL     
     978 H7          34.6500    29.3470    33.3510 H7            1 UNL     
     979 H7          48.5820    29.3550    29.7160 H7            1 UNL     
     980 H7          50.2840    28.8870    30.1880 H7            1 UNL     
     981 H7          47.9090    27.4660    31.4320 H7            1 UNL     
     982 H7          48.6690    27.0610    29.6980 H7            1 UNL     
     983 H7          49.0730    25.3000    31.0890 H7            1 UNL     
     984 H7          50.6110    26.5430    30.8780 H7            1 UNL     
     985 H7          50.7930    24.9360    32.6880 H7            1 UNL     
     986 H7          50.8140    26.8150    32.9870 H7            1 UNL     
     987 H7          48.4760    25.1500    33.7880 H7            1 UNL     
     988 H7          50.0000    25.3360    34.8290 H7            1 UNL     
     989 H7          49.6680    27.7580    34.8230 H7            1 UNL     
     990 H7          48.0560    27.4550    33.9670 H7            1 UNL     
     991 H7          47.2780    26.2050    35.9450 H7            1 UNL     
     992 H7          48.7940    26.6630    36.8060 H7            1 UNL     
     993 H7          48.2490    29.0690    36.4790 H7            1 UNL     
     994 H7          46.6730    28.5230    35.6660 H7            1 UNL     
     995 H7          47.4060    28.3440    38.6100 H7            1 UNL     
     996 H7          46.0910    29.3140    37.8120 H7            1 UNL     
     997 H7          45.0130    27.2240    37.0880 H7            1 UNL     
     998 H7          46.3230    26.3160    38.0370 H7            1 UNL     
     999 H7          44.8690    26.1990    39.6780 H7            1 UNL     
    1000 H7          45.2150    28.0060    39.8740 H7            1 UNL     
    1001 H7          43.0480    27.1070    38.0710 H7            1 UNL     
    1002 H7          42.6470    27.3940    41.1110 H7            1 UNL     
    1003 H7          41.3580    27.0800    39.8290 H7            1 UNL     
    1004 H7          42.4740    24.9060    39.3550 H7            1 UNL     
    1005 H7          43.5070    25.1830    40.8070 H7            1 UNL     
    1006 H7          41.4570    25.3820    42.2070 H7            1 UNL     
    1007 H7          40.4520    25.0400    40.7460 H7            1 UNL     
    1008 H7          41.6020    23.1620    42.5510 H7            1 UNL     
    1009 H7          40.7340    22.8310    41.0130 H7            1 UNL     
    1010 H7          42.5200    23.0230    41.0130 H7            1 UNL     
    1011 H7          43.2430    29.5850    39.8700 H7            1 UNL     
    1012 H7          43.5620    29.5100    38.0990 H7            1 UNL     
    1013 H7          41.2100    28.6530    37.7920 H7            1 UNL     
    1014 H7          40.9850    29.0610    39.6020 H7            1 UNL     
    1015 H7          41.3070    31.4070    39.0970 H7            1 UNL     
    1016 H7          41.3940    31.0270    37.3450 H7            1 UNL     
    1017 H7          39.0480    30.4850    39.2420 H7            1 UNL     
    1018 H7          39.1510    31.7010    37.8610 H7            1 UNL     
    1019 H7          39.2180    28.6900    37.4790 H7            1 UNL     
    1020 H7          37.7250    29.7220    37.3760 H7            1 UNL     
    1021 H7          39.8840    30.8250    35.7730 H7            1 UNL     
    1022 H7          39.5240    29.1290    35.3020 H7            1 UNL     
    1023 H7          38.2150    30.3590    35.3020 H7            1 UNL     
    1024 H7          49.9280    29.4900    33.7390 H7            1 UNL     
    1025 H7          50.0850    28.0840    32.5080 H7            1 UNL     
    1026 H7          51.8720    30.4630    32.9050 H7            1 UNL     
    1027 H7          52.1250    28.5300    32.9580 H7            1 UNL     
    1028 H7          53.5640    29.6840    31.4870 H7            1 UNL     
    1029 H7          52.1000    28.4890    30.7920 H7            1 UNL     
    1030 H7          53.3360    29.8250    29.1760 H7            1 UNL     
    1031 H7          51.3970    29.9310    29.5110 H7            1 UNL     
    1032 H7          52.6400    32.3000    30.2690 H7            1 UNL     
    1033 H7          53.0530    31.8810    28.5190 H7            1 UNL     
    1034 H7          50.6760    31.6740    27.9810 H7            1 UNL     
    1035 H7          50.2870    32.1350    29.7390 H7            1 UNL     
    1036 H7          50.8050    34.3960    29.4100 H7            1 UNL     
    1037 H7          51.7060    34.0580    27.8650 H7            1 UNL     
    1038 H7          49.5680    33.4470    26.7680 H7            1 UNL     
    1039 H7          48.7490    34.0100    28.4000 H7            1 UNL     
    1040 H7          50.0770    36.2140    27.1670 H7            1 UNL     
    1041 H7          48.8870    35.4090    26.0000 H7            1 UNL     
    1042 H7          47.2140    35.5750    27.9450 H7            1 UNL     
    1043 H7          48.4460    36.8880    28.5300 H7            1 UNL     
    1044 H7          47.8060    38.4210    26.9920 H7            1 UNL     
    1045 H7          47.0030    37.0900    25.9290 H7            1 UNL     
    1046 H7          45.8010    37.8090    28.4790 H7            1 UNL     
    1047 H7          45.9260    39.8080    26.2590 H7            1 UNL     
    1048 H7          44.2290    39.4760    26.8370 H7            1 UNL     
    1049 H7          45.2100    39.8670    29.2220 H7            1 UNL     
    1050 H7          46.5710    40.6750    28.3470 H7            1 UNL     
    1051 H7          45.0330    42.2480    27.2970 H7            1 UNL     
    1052 H7          43.6170    41.3820    28.0290 H7            1 UNL     
    1053 H7          44.6940    41.9250    30.3070 H7            1 UNL     
    1054 H7          45.7170    43.0950    29.4070 H7            1 UNL     
    1055 H7          43.9310    43.2790    29.4070 H7            1 UNL     
    1056 H7          44.2720    37.2780    25.8420 H7            1 UNL     
    1057 H7          44.7240    36.0240    27.1010 H7            1 UNL     
    1058 H7          43.3930    37.6550    28.6990 H7            1 UNL     
    1059 H7          42.5870    38.0220    27.0010 H7            1 UNL     
    1060 H7          42.4680    35.2660    27.9060 H7            1 UNL     
    1061 H7          41.4880    36.5500    28.8450 H7            1 UNL     
    1062 H7          40.5940    37.1900    26.5560 H7            1 UNL     
    1063 H7          41.1490    35.5270    26.0730 H7            1 UNL     
    1064 H7          39.2850    36.1300    28.4100 H7            1 UNL     
    1065 H7          38.7700    35.5960    26.7470 H7            1 UNL     
    1066 H7          39.7540    34.0100    29.0020 H7            1 UNL     
    1067 H7          38.9130    33.5000    27.4990 H7            1 UNL     
    1068 H7          40.6950    33.7250    27.4990 H7            1 UNL     
    1069 H5           0.2770     3.0290    -0.2420 H5            1 UNL     
    1070 H5          -0.3120     0.3420     2.2520 H5            1 UNL     
    1071 H5          -5.1250    -0.2440    -0.7860 H5            1 UNL     
    1072 H6          -5.3240    -1.8360     0.5320 H6            1 UNL     
    1073 H5           4.7470    -0.8220     1.1930 H5            1 UNL     
    1074 H5           6.7000     2.3660     1.2510 H5            1 UNL     
    1075 H5          15.1710    -1.4780     1.0950 H5            1 UNL     
    1076 H5          15.3590     0.8660     4.0430 H5            1 UNL     
    1077 H5          20.7820     0.7730     1.9930 H5            1 UNL     
    1078 H5          11.0880     2.6380     1.9290 H5            1 UNL     
    1079 H5          23.9900     1.0520     4.6660 H5            1 UNL     
    1080 H7           3.4620    -1.8590     2.1670 H7            1 UNL     
    1081 H7           1.5970    -2.3560     2.3420 H7            1 UNL     
    1082 H7           3.5330    -3.7120     0.5190 H7            1 UNL     
    1083 H7           3.0100    -4.1790     2.3270 H7            1 UNL     
    1084 H7           2.1490    -5.8110     1.1200 H7            1 UNL     
    1085 H7           0.8220    -4.3990     1.2950 H7            1 UNL     
    1086 H7           2.0770    -5.3250    -1.1910 H7            1 UNL     
    1087 H7           0.2570    -5.5690    -0.2870 H7            1 UNL     
    1088 H7          -0.1240    -5.0170    -2.4420 H7            1 UNL     
    1089 H7          -0.3190    -3.5980    -1.1940 H7            1 UNL     
    1090 H7           0.9670    -2.2340    -2.2310 H7            1 UNL     
    1091 H7           1.8310    -3.8860    -3.1020 H7            1 UNL     
    1092 H7           0.9850    -3.4340    -5.0370 H7            1 UNL     
    1093 H7           0.0070    -2.0180    -4.3990 H7            1 UNL     
    1094 H7           1.6540    -0.5640    -4.7130 H7            1 UNL     
    1095 H7           2.8960    -1.8530    -4.0310 H7            1 UNL     
    1096 H7           2.2240    -1.3500    -6.9340 H7            1 UNL     
    1097 H7           3.7780    -0.9430    -5.9610 H7            1 UNL     
    1098 H7           4.1600    -3.3240    -5.6910 H7            1 UNL     
    1099 H7           2.7620    -3.5100    -6.9880 H7            1 UNL     
    1100 H7           4.2970    -3.8860    -8.4420 H7            1 UNL     
    1101 H7           4.6720    -2.0850    -8.2450 H7            1 UNL     
    1102 H7           6.0940    -4.0770    -6.5270 H7            1 UNL     
    1103 H7           6.8410    -3.6900    -9.4430 H7            1 UNL     
    1104 H7           8.0000    -4.2540    -8.1480 H7            1 UNL     
    1105 H7           6.4550    -6.1570    -7.6560 H7            1 UNL     
    1106 H7           5.4450    -5.6420    -9.0720 H7            1 UNL     
    1107 H7           7.3570    -5.9890   -10.5810 H7            1 UNL     
    1108 H7           8.3740    -6.4960    -9.1700 H7            1 UNL     
    1109 H7           6.7200    -8.3580    -8.7500 H7            1 UNL     
    1110 H7           5.9190    -7.9240   -10.2980 H7            1 UNL     
    1111 H7           7.6210    -8.5000   -10.2980 H7            1 UNL     
    1112 H7           7.0160    -1.4360    -7.7910 H7            1 UNL     
    1113 H7           6.3760    -1.7040    -6.0850 H7            1 UNL     
    1114 H7           8.3600    -3.1760    -5.6410 H7            1 UNL     
    1115 H7           9.0260    -2.6500    -7.2530 H7            1 UNL     
    1116 H7           8.8230    -0.2550    -6.3930 H7            1 UNL     
    1117 H7           8.5790    -1.0340    -4.7410 H7            1 UNL     
    1118 H7          11.0300    -1.3590    -6.4910 H7            1 UNL     
    1119 H7          10.8010    -0.2260    -5.0210 H7            1 UNL     
    1120 H7          10.6490    -3.2090    -4.7770 H7            1 UNL     
    1121 H7          12.2180    -2.2530    -4.6940 H7            1 UNL     
    1122 H7          11.4600    -2.6790    -2.4500 H7            1 UNL     
    1123 H7          11.2550    -0.9350    -2.8270 H7            1 UNL     
    1124 H7           9.8290    -2.0270    -2.8270 H7            1 UNL     
    1125 H7           1.1600    -1.3130    -1.1160 H7            1 UNL     
    1126 H7           2.0790    -2.7180    -0.4560 H7            1 UNL     
    1127 H7          -0.7240    -1.7810     0.0720 H7            1 UNL     
    1128 H7           0.2010    -3.5340    -0.0140 H7            1 UNL     
    1129 H7          -1.4990    -3.0770     1.7940 H7            1 UNL     
    1130 H7           0.3990    -3.6870     2.0210 H7            1 UNL     
    1131 H7          -1.1120    -2.6710     3.9540 H7            1 UNL     
    1132 H7           0.8240    -2.5160     3.5200 H7            1 UNL     
    1133 H7          -0.9200    -0.1550     3.4100 H7            1 UNL     
    1134 H7          -0.1880    -0.8450     5.0270 H7            1 UNL     
    1135 H7           1.7420     0.0710     4.7490 H7            1 UNL     
    1136 H7           1.6290    -0.2410     2.8590 H7            1 UNL     
    1137 H7           0.6930     1.9250     2.5090 H7            1 UNL     
    1138 H7           0.7680     2.2950     4.2810 H7            1 UNL     
    1139 H7           3.3360     1.6780     3.9630 H7            1 UNL     
    1140 H7           2.8450     2.2250     2.1920 H7            1 UNL     
    1141 H7           2.2970     4.3170     3.9570 H7            1 UNL     
    1142 H7           4.0540     3.6850     4.1900 H7            1 UNL     
    1143 H7           4.4420     4.0730     1.8130 H7            1 UNL     
    1144 H7           2.8120     4.9450     1.7820 H7            1 UNL     
    1145 H7           4.1630     6.7630     1.9600 H7            1 UNL     
    1146 H7           3.9790     6.2510     3.7670 H7            1 UNL     
    1147 H7           6.3340     5.6200     2.1170 H7            1 UNL     
    1148 H7           6.1210     8.0010     4.0840 H7            1 UNL     
    1149 H7           7.5900     7.4800     3.0340 H7            1 UNL     
    1150 H7           6.4640     8.2450     1.0700 H7            1 UNL     
    1151 H7           5.0800     8.8180     2.0350 H7            1 UNL     
    1152 H7           6.6950    10.2230     3.4150 H7            1 UNL     
    1153 H7           8.0140     9.6970     2.2780 H7            1 UNL     
    1154 H7           6.3360    11.9470     2.0290 H7            1 UNL     
    1155 H7           7.4730    11.2760     0.8110 H7            1 UNL     
    1156 H7           5.7520    10.7630     0.8110 H7            1 UNL     
    1157 H7           6.1700     6.0500     5.1700 H7            1 UNL     
    1158 H7           6.0590     4.4360     4.3210 H7            1 UNL     
    1159 H7           8.3760     4.7530     3.4500 H7            1 UNL     
    1160 H7           8.4910     6.3000     4.3820 H7            1 UNL     
    1161 H7           8.2180     5.1280     6.4690 H7            1 UNL     
    1162 H7           7.9870     3.5500     5.5130 H7            1 UNL     
    1163 H7          10.5220     5.1180     5.9090 H7            1 UNL     
    1164 H7          10.0620     3.4590     6.5330 H7            1 UNL     
    1165 H7          10.4330     4.2550     3.6620 H7            1 UNL     
    1166 H7          11.5780     3.2900     4.7980 H7            1 UNL     
    1167 H7           9.7510     1.5920     4.8650 H7            1 UNL     
    1168 H7           9.1120     2.3980     3.3930 H7            1 UNL     
    1169 H7          10.7730     1.7140     3.3930 H7            1 UNL     
    1170 H7          -1.9930     2.3930    -2.7150 H7            1 UNL     
    1171 H7          -3.8130     2.4650    -2.4400 H7            1 UNL     
    1172 H7          -1.9200     4.2880    -0.9200 H7            1 UNL     
    1173 H7          -2.6470     4.6200    -2.6760 H7            1 UNL     
    1174 H7          -3.5530     6.1340    -1.1780 H7            1 UNL     
    1175 H7          -4.7350     4.5780    -1.6260 H7            1 UNL     
    1176 H7          -5.4950     5.9640     0.1940 H7            1 UNL     
    1177 H7          -5.0190     4.1040     0.4230 H7            1 UNL     
    1178 H7          -3.3760     6.2250     1.6650 H7            1 UNL     
    1179 H7          -4.9740     5.6500     2.4140 H7            1 UNL     
    1180 H7          -4.1090     3.3670     2.4000 H7            1 UNL     
    1181 H7          -2.4660     4.1300     1.8910 H7            1 UNL     
    1182 H7          -2.2970     5.2000     4.0280 H7            1 UNL     
    1183 H7          -3.8160     4.4150     4.5710 H7            1 UNL     
    1184 H7          -2.8310     2.1720     4.2250 H7            1 UNL     
    1185 H7          -1.3010     2.9870     3.5740 H7            1 UNL     
    1186 H7          -2.2680     2.9050     6.4580 H7            1 UNL     
    1187 H7          -0.7930     2.1450     5.7510 H7            1 UNL     
    1188 H7           0.0500     4.3810     5.1350 H7            1 UNL     
    1189 H7          -1.4570     5.0830     5.9690 H7            1 UNL     
    1190 H7          -0.1010     5.4490     7.6500 H7            1 UNL     
    1191 H7          -0.3540     3.6370     7.9250 H7            1 UNL     
    1192 H7           1.9530     4.6880     6.3410 H7            1 UNL     
    1193 H7           2.0110     4.1920     9.3690 H7            1 UNL     
    1194 H7           3.3930     4.7090     8.2730 H7            1 UNL     
    1195 H7           2.2050     6.8280     7.8390 H7            1 UNL     
    1196 H7           0.9610     6.3420     9.0580 H7            1 UNL     
    1197 H7           2.7530     6.1750    10.7810 H7            1 UNL     
    1198 H7           3.9460     6.7580     9.5620 H7            1 UNL     
    1199 H7           2.4790     8.3740    11.2860 H7            1 UNL     
    1200 H7           3.2670     8.9120     9.7640 H7            1 UNL     
    1201 H7           1.5290     8.4570     9.7640 H7            1 UNL     
    1202 H7           1.5720     2.1130     7.9590 H7            1 UNL     
    1203 H7           1.4920     2.2870     6.1610 H7            1 UNL     
    1204 H7           3.8480     3.1380     6.2040 H7            1 UNL     
    1205 H7           3.8680     2.7000     7.9910 H7            1 UNL     
    1206 H7           3.5450     0.3640     7.4410 H7            1 UNL     
    1207 H7           3.5230     0.7640     5.6830 H7            1 UNL     
    1208 H7           5.8020     1.1010     7.6590 H7            1 UNL     
    1209 H7           5.6560     0.0050     6.1590 H7            1 UNL     
    1210 H7           5.7520     2.9790     5.9780 H7            1 UNL     
    1211 H7           7.2420     1.7910     6.0260 H7            1 UNL     
    1212 H7           6.8660     1.0360     3.9120 H7            1 UNL     
    1213 H7           5.2430     1.7980     3.8000 H7            1 UNL     
    1214 H7           6.7190     2.8230     3.8000 H7            1 UNL     
    1215 H7          -3.3340     1.9500     1.2280 H7            1 UNL     
    1216 H7          -3.8080     3.2620    -0.0300 H7            1 UNL     
    1217 H7          -5.1720     0.6390     0.5000 H7            1 UNL     
    1218 H7          -5.6930     2.4790     0.7900 H7            1 UNL     
    1219 H7          -6.9980     1.0540    -0.7450 H7            1 UNL     
    1220 H7          -6.0780     2.7920    -1.2270 H7            1 UNL     
    1221 H7          -7.0360     1.6830    -3.0550 H7            1 UNL     
    1222 H7          -5.0780     1.8110    -2.8130 H7            1 UNL     
    1223 H7          -6.1430    -0.8300    -2.7600 H7            1 UNL     
    1224 H7          -6.2670     0.1320    -4.3870 H7            1 UNL     
    1225 H7          -4.0280     0.1370    -4.7450 H7            1 UNL     
    1226 H7          -3.6680    -0.2600    -2.9690 H7            1 UNL     
    1227 H7          -4.1120    -2.5930    -3.2810 H7            1 UNL     
    1228 H7          -4.8160    -2.3050    -4.9360 H7            1 UNL     
    1229 H7          -2.6080    -1.5870    -5.7380 H7            1 UNL     
    1230 H7          -2.0240    -2.1990    -3.9630 H7            1 UNL     
    1231 H7          -2.7870    -4.2080    -5.9600 H7            1 UNL     
    1232 H7          -1.1360    -3.2970    -6.0710 H7            1 UNL     
    1233 H7          -0.8640    -4.1040    -3.6550 H7            1 UNL     
    1234 H7          -2.0800    -5.4340    -4.3660 H7            1 UNL     
    1235 H7          -0.4810    -6.7680    -4.8200 H7            1 UNL     
    1236 H7           0.3410    -5.2290    -5.7700 H7            1 UNL     
    1237 H7           1.1750    -5.6940    -3.2370 H7            1 UNL     
    1238 H7           1.7690    -7.9070    -5.2880 H7            1 UNL     
    1239 H7           3.1560    -7.4280    -4.1690 H7            1 UNL     
    1240 H7           1.6150    -7.9810    -2.2400 H7            1 UNL     
    1241 H7           0.5290    -8.7640    -3.4280 H7            1 UNL     
    1242 H7           2.4020   -10.2070    -4.2080 H7            1 UNL     
    1243 H7           3.5030    -9.3800    -3.0130 H7            1 UNL     
    1244 H7           2.2670   -10.2880    -1.1590 H7            1 UNL     
    1245 H7           1.0430   -11.0040    -2.2620 H7            1 UNL     
    1246 H7           2.7270   -11.6290    -2.2620 H7            1 UNL     
    1247 H7           3.2840    -5.5960    -5.4730 H7            1 UNL     
    1248 H7           2.4630    -4.1380    -4.6990 H7            1 UNL     
    1249 H7           3.4370    -5.3590    -2.4930 H7            1 UNL     
    1250 H7           4.7090    -5.7890    -3.8100 H7            1 UNL     
    1251 H7           4.1630    -2.9560    -3.6710 H7            1 UNL     
    1252 H7           4.8070    -3.6840    -2.0970 H7            1 UNL     
    1253 H7           6.5650    -4.7420    -3.6720 H7            1 UNL     
    1254 H7           6.1070    -3.3350    -4.7370 H7            1 UNL     
    1255 H7           7.0610    -3.1650    -1.8650 H7            1 UNL     
    1256 H7           8.0230    -2.8220    -3.4000 H7            1 UNL     
    1257 H7           6.5240    -0.9900    -1.8330 H7            1 UNL     
    1258 H7           7.3800    -0.7170    -3.3880 H7            1 UNL     
    1259 H7           5.6530    -1.2120    -3.3880 H7            1 UNL     
    1260 H7          12.3310     3.5380     3.3110 H7            1 UNL     
    1261 H7          14.1660     3.8890     3.7900 H7            1 UNL     
    1262 H7          12.6560     5.4550     1.7490 H7            1 UNL     
    1263 H7          12.8340     5.8150     3.6230 H7            1 UNL     
    1264 H7          14.1270     7.3710     2.7560 H7            1 UNL     
    1265 H7          15.2470     5.8230     3.0190 H7            1 UNL     
    1266 H7          14.4370     6.9800     0.4360 H7            1 UNL     
    1267 H7          16.1410     6.9810     1.5790 H7            1 UNL     
    1268 H7          16.6490     6.5280    -0.6210 H7            1 UNL     
    1269 H7          16.6700     5.0760     0.6640 H7            1 UNL     
    1270 H7          15.6550     3.7080    -0.5570 H7            1 UNL     
    1271 H7          14.7920     5.3120    -1.4850 H7            1 UNL     
    1272 H7          15.9970     4.9980    -3.3110 H7            1 UNL     
    1273 H7          16.8840     3.5670    -2.5830 H7            1 UNL     
    1274 H7          15.3080     2.1150    -3.1680 H7            1 UNL     
    1275 H7          13.9690     3.3490    -2.6720 H7            1 UNL     
    1276 H7          15.2120     3.0010    -5.4150 H7            1 UNL     
    1277 H7          13.4860     2.6190    -4.8170 H7            1 UNL     
    1278 H7          13.1470     5.0160    -4.4630 H7            1 UNL     
    1279 H7          14.7790     5.2270    -5.3970 H7            1 UNL     
    1280 H7          13.5720     5.6900    -7.1420 H7            1 UNL     
    1281 H7          13.2090     3.8750    -7.1300 H7            1 UNL     
    1282 H7          11.4060     5.7650    -5.6750 H7            1 UNL     
    1283 H7          11.3080     5.4170    -8.7030 H7            1 UNL     
    1284 H7           9.9010     5.9740    -7.6770 H7            1 UNL     
    1285 H7          11.3110     7.8740    -6.8670 H7            1 UNL     
    1286 H7          12.5830     7.3680    -8.0590 H7            1 UNL     
    1287 H7          11.0190     7.7370    -9.9160 H7            1 UNL     
    1288 H7           9.7310     8.2190    -8.7380 H7            1 UNL     
    1289 H7          11.4410    10.0160    -7.9400 H7            1 UNL     
    1290 H7          12.2800     9.6950    -9.4950 H7            1 UNL     
    1291 H7          10.5830    10.2850    -9.4950 H7            1 UNL     
    1292 H7          10.7950     3.1700    -7.1740 H7            1 UNL     
    1293 H7          11.0960     3.3700    -5.3760 H7            1 UNL     
    1294 H7           9.0660     4.8980    -5.3100 H7            1 UNL     
    1295 H7           8.7100     4.3490    -7.0060 H7            1 UNL     
    1296 H7           8.7890     1.9640    -6.0820 H7            1 UNL     
    1297 H7           8.6930     2.7840    -4.4300 H7            1 UNL     
    1298 H7           6.6220     2.9770    -6.6300 H7            1 UNL     
    1299 H7           6.5960     1.9260    -5.0740 H7            1 UNL     
    1300 H7           6.5320     4.9250    -5.0450 H7            1 UNL     
    1301 H7           5.0550     3.8400    -5.0830 H7            1 UNL     
    1302 H7           5.8710     4.7280    -2.7990 H7            1 UNL     
    1303 H7           5.4610     2.9880    -2.9700 H7            1 UNL     
    1304 H7           7.1800     3.5100    -2.9700 H7            1 UNL     
    1305 H7          15.3610     2.9280     0.6220 H7            1 UNL     
    1306 H7          14.5350     4.4740     1.2470 H7            1 UNL     
    1307 H7          16.9260     2.9930     2.2810 H7            1 UNL     
    1308 H7          16.3860     4.8960     2.0240 H7            1 UNL     
    1309 H7          17.5330     4.1580     4.1200 H7            1 UNL     
    1310 H7          15.7790     5.1240     3.9260 H7            1 UNL     
    1311 H7          16.4910     4.1380     6.1510 H7            1 UNL     
    1312 H7          14.7850     3.9240     5.1850 H7            1 UNL     
    1313 H7          16.4390     1.5550     5.5260 H7            1 UNL     
    1314 H7          15.5490     2.2690     7.0100 H7            1 UNL     
    1315 H7          13.5470     1.5750     6.3610 H7            1 UNL     
    1316 H7          14.0120     1.8200     4.5430 H7            1 UNL     
    1317 H7          14.9220    -0.4170     4.4310 H7            1 UNL     
    1318 H7          14.5130    -0.7160     6.1640 H7            1 UNL     
    1319 H7          12.0750    -0.0680     5.4490 H7            1 UNL     
    1320 H7          12.7830    -0.4880     3.7420 H7            1 UNL     
    1321 H7          13.1060    -2.6880     5.5020 H7            1 UNL     
    1322 H7          11.3300    -2.0960     5.4180 H7            1 UNL     
    1323 H7          11.4210    -2.3620     2.9850 H7            1 UNL     
    1324 H7          13.0460    -3.1920     3.2160 H7            1 UNL     
    1325 H7          11.7560    -5.0600     3.1100 H7            1 UNL     
    1326 H7          11.5480    -4.6010     4.9190 H7            1 UNL     
    1327 H7           9.5840    -3.9910     2.7940 H7            1 UNL     
    1328 H7           9.4460    -6.3310     4.8100 H7            1 UNL     
    1329 H7           8.1850    -5.8460     3.5040 H7            1 UNL     
    1330 H7           9.6990    -6.5900     1.7900 H7            1 UNL     
    1331 H7          10.8480    -7.1740     3.0170 H7            1 UNL     
    1332 H7           8.9900    -8.5770     4.0320 H7            1 UNL     
    1333 H7           7.9100    -8.0150     2.6800 H7            1 UNL     
    1334 H7           9.7830   -10.2130     2.7300 H7            1 UNL     
    1335 H7           8.6010    -9.7370     1.4650 H7            1 UNL     
    1336 H7          10.2510    -9.0270     1.4650 H7            1 UNL     
    1337 H7           9.1120    -4.2850     5.8260 H7            1 UNL     
    1338 H7           9.3400    -2.7150     4.9270 H7            1 UNL     
    1339 H7           7.2830    -3.1450     3.6270 H7            1 UNL     
    1340 H7           7.0580    -4.7090     4.5560 H7            1 UNL     
    1341 H7           6.7390    -3.4850     6.6090 H7            1 UNL     
    1342 H7           6.9980    -1.9140     5.6980 H7            1 UNL     
    1343 H7           4.6840    -3.8440     5.4440 H7            1 UNL     
    1344 H7           4.7110    -2.1280     6.1000 H7            1 UNL     
    1345 H7           5.0810    -3.0250     3.2470 H7            1 UNL     
    1346 H7           3.6990    -2.0740     4.0250 H7            1 UNL     
    1347 H7           5.6990    -0.4230     4.5470 H7            1 UNL     
    1348 H7           6.3360    -1.1610     3.0390 H7            1 UNL     
    1349 H7           4.7260    -0.3640     3.0390 H7            1 UNL     
    1350 H7          17.9020    -1.3650    -0.5410 H7            1 UNL     
    1351 H7          19.6950    -1.1950    -0.0200 H7            1 UNL     
    1352 H7          17.7910    -3.4420     0.7340 H7            1 UNL     
    1353 H7          19.4270    -3.3090    -0.4370 H7            1 UNL     
    1354 H7          19.4690    -5.1670     1.1220 H7            1 UNL     
    1355 H7          20.7330    -3.7090     1.2390 H7            1 UNL     
    1356 H7          20.5070    -4.9730     3.0720 H7            1 UNL     
    1357 H7          19.6000    -3.0830     3.0720 H7            1 UNL     
    1358 H7          18.9210    -5.0750     4.9140 H7            1 UNL     
    1359 H7          20.5700    -4.3370     5.1090 H7            1 UNL     
    1360 H7          19.7050    -2.1280     5.1450 H7            1 UNL     
    1361 H7          18.0070    -2.8370     4.6330 H7            1 UNL     
    1362 H7          17.7120    -3.6310     6.8720 H7            1 UNL     
    1363 H7          19.1910    -2.7600     7.3820 H7            1 UNL     
    1364 H7          18.2540    -0.6000     6.8010 H7            1 UNL     
    1365 H7          16.8810    -1.4350     5.8720 H7            1 UNL     
    1366 H7          17.1610    -1.1800     8.8920 H7            1 UNL     
    1367 H7          15.9450    -0.3920     7.8280 H7            1 UNL     
    1368 H7          15.1300    -2.6100     7.1210 H7            1 UNL     
    1369 H7          16.3750    -3.3410     8.3060 H7            1 UNL     
    1370 H7          14.6870    -3.5950     9.6410 H7            1 UNL     
    1371 H7          14.9030    -1.7620     9.8760 H7            1 UNL     
    1372 H7          12.9980    -2.8100     7.8530 H7            1 UNL     
    1373 H7          12.2870    -2.4130    10.8210 H7            1 UNL     
    1374 H7          11.1670    -2.8870     9.4370 H7            1 UNL     
    1375 H7          12.4080    -5.0040     9.2100 H7            1 UNL     
    1376 H7          13.3610    -4.5650    10.6840 H7            1 UNL     
    1377 H7          11.2390    -4.4270    11.9810 H7            1 UNL     
    1378 H7          10.3360    -4.9640    10.5180 H7            1 UNL     
    1379 H7          11.6160    -6.5910    12.4940 H7            1 UNL     
    1380 H7          10.8070    -7.1170    10.9790 H7            1 UNL     
    1381 H7          12.5670    -6.7570    10.9790 H7            1 UNL     
    1382 H7          13.0380    -0.2540     9.5390 H7            1 UNL     
    1383 H7          13.4080    -0.4170     7.7850 H7            1 UNL     
    1384 H7          11.0940    -1.3400     7.4620 H7            1 UNL     
    1385 H7          10.8100    -0.8440     9.2410 H7            1 UNL     
    1386 H7          11.1240     1.4830     8.6040 H7            1 UNL     
    1387 H7          11.2090     1.0010     6.8830 H7            1 UNL     
    1388 H7           8.8970     0.5780     8.8430 H7            1 UNL     
    1389 H7           8.9600     1.6100     7.3130 H7            1 UNL     
    1390 H7           9.0910    -1.4190     7.3160 H7            1 UNL     
    1391 H7           7.5700    -0.4340     7.1150 H7            1 UNL     
    1392 H7           9.8880     0.1940     5.3330 H7            1 UNL     
    1393 H7           8.9720    -1.3190     5.0200 H7            1 UNL     
    1394 H7           8.1210     0.2630     5.0200 H7            1 UNL     
    1395 H7          18.4560    -1.0240     3.5450 H7            1 UNL     
    1396 H7          18.7530    -2.4220     2.4000 H7            1 UNL     
    1397 H7          20.6330    -0.1240     3.0980 H7            1 UNL     
    1398 H7          20.7550    -2.0440     3.3230 H7            1 UNL     
    1399 H7          22.5300    -1.1090     2.0780 H7            1 UNL     
    1400 H7          21.1300    -2.2250     1.1490 H7            1 UNL     
    1401 H7          22.8540    -0.9620    -0.1590 H7            1 UNL     
    1402 H7          20.8510    -0.9100    -0.3140 H7            1 UNL     
    1403 H7          22.1700     1.5230     0.3100 H7            1 UNL     
    1404 H7          22.3530     0.7300    -1.4430 H7            1 UNL     
    1405 H7          20.2130     1.1530    -2.0190 H7            1 UNL     
    1406 H7          19.7610     1.6020    -0.2740 H7            1 UNL     
    1407 H7          20.7540     3.7800    -0.4520 H7            1 UNL     
    1408 H7          21.5470     3.3500    -2.0450 H7            1 UNL     
    1409 H7          19.3080     3.1850    -3.0720 H7            1 UNL     
    1410 H7          18.7560     3.9900    -1.3530 H7            1 UNL     
    1411 H7          20.1750     5.8760    -2.8670 H7            1 UNL     
    1412 H7          18.7440     5.1610    -3.8490 H7            1 UNL     
    1413 H7          17.5200     5.7380    -1.5540 H7            1 UNL     
    1414 H7          18.8760     7.1310    -1.8270 H7            1 UNL     
    1415 H7          17.5710     8.4280    -2.8760 H7            1 UNL     
    1416 H7          16.8360     6.8770    -3.8050 H7            1 UNL     
    1417 H7          15.6640     7.5770    -1.3710 H7            1 UNL     
    1418 H7          15.4380     9.6410    -3.5700 H7            1 UNL     
    1419 H7          13.8560     9.1830    -2.7560 H7            1 UNL     
    1420 H7          14.9990     9.7520    -0.5480 H7            1 UNL     
    1421 H7          16.2850    10.5360    -1.5180 H7            1 UNL     
    1422 H7          14.6030    11.9720    -2.6320 H7            1 UNL     
    1423 H7          13.2860    11.1320    -1.6980 H7            1 UNL     
    1424 H7          14.4010    11.9460     0.4100 H7            1 UNL     
    1425 H7          15.4590    12.9660    -0.6230 H7            1 UNL     
    1426 H7          13.6820    13.2280    -0.6230 H7            1 UNL     
    1427 H7          13.9060     7.3430    -3.9040 H7            1 UNL     
    1428 H7          14.6570     5.8930    -3.0250 H7            1 UNL     
    1429 H7          13.3350     6.8720    -0.9630 H7            1 UNL     
    1430 H7          12.2970     7.5810    -2.3140 H7            1 UNL     
    1431 H7          12.8730     4.6800    -2.4680 H7            1 UNL     
    1432 H7          11.7560     5.2920    -1.1230 H7            1 UNL     
    1433 H7          10.9960     6.4100    -3.6360 H7            1 UNL     
    1434 H7          11.0800     4.5930    -3.7250 H7            1 UNL     
    1435 H7           9.6290     6.0990    -1.5260 H7            1 UNL     
    1436 H7           8.8460     5.5380    -3.0550 H7            1 UNL     
    1437 H7           9.4900     4.0290    -0.6470 H7            1 UNL     
    1438 H7           8.5220     3.5430    -2.0800 H7            1 UNL     
    1439 H7          10.3040     3.3160    -2.0800 H7            1 UNL     
    1440 H5          30.5390     6.4890     2.6960 H5            1 UNL     
    1441 H5          29.8080     3.9420     5.4020 H5            1 UNL     
    1442 H5          24.8220     4.2430     2.6510 H5            1 UNL     
    1443 H5          34.4390     2.2450     4.3290 H5            1 UNL     
    1444 H5          36.4360     5.3270     4.3590 H5            1 UNL     
    1445 H5          45.3120     1.8810     4.8950 H5            1 UNL     
    1446 H5          45.5460     4.3090     7.5480 H5            1 UNL     
    1447 H5          50.8600     4.3570     5.6310 H5            1 UNL     
    1448 H5          40.7150     5.6440     5.2770 H5            1 UNL     
    1449 H5          54.0600     5.9530     8.3910 H5            1 UNL     
    1450 H5          54.5380     7.9200     8.2860 H5            1 UNL     
    1451 H7          32.9360     1.3840     5.3110 H7            1 UNL     
    1452 H7          31.0440     1.0470     5.3320 H7            1 UNL     
    1453 H7          32.9180    -0.4650     3.5790 H7            1 UNL     
    1454 H7          32.4640    -0.8900     5.3810 H7            1 UNL     
    1455 H7          31.2900    -2.3920     4.2870 H7            1 UNL     
    1456 H7          30.1620    -0.8200     4.4010 H7            1 UNL     
    1457 H7          31.3430    -1.8700     1.9320 H7            1 UNL     
    1458 H7          29.5130    -2.0550     2.8340 H7            1 UNL     
    1459 H7          29.1210    -1.4870     0.7040 H7            1 UNL     
    1460 H7          29.0420    -0.0350     1.9310 H7            1 UNL     
    1461 H7          30.3430     1.2340     0.8310 H7            1 UNL     
    1462 H7          31.1180    -0.4880    -0.0100 H7            1 UNL     
    1463 H7          30.3020    -0.0090    -1.9630 H7            1 UNL     
    1464 H7          29.4300     1.4740    -1.3730 H7            1 UNL     
    1465 H7          31.2380     2.7900    -1.5450 H7            1 UNL     
    1466 H7          32.3400     1.3450    -0.9560 H7            1 UNL     
    1467 H7          31.6680     2.0760    -3.8050 H7            1 UNL     
    1468 H7          33.2830     2.2180    -2.8520 H7            1 UNL     
    1469 H7          33.2440    -0.2660    -2.7170 H7            1 UNL     
    1470 H7          31.9670    -0.0970    -4.1110 H7            1 UNL     
    1471 H7          33.6560    -0.6250    -5.3990 H7            1 UNL     
    1472 H7          34.0230     1.1760    -5.1490 H7            1 UNL     
    1473 H7          35.3370    -0.8170    -3.3510 H7            1 UNL     
    1474 H7          36.1950    -0.4460    -6.2540 H7            1 UNL     
    1475 H7          37.3110    -1.0160    -4.9270 H7            1 UNL     
    1476 H7          35.7660    -2.9190    -4.4850 H7            1 UNL     
    1477 H7          34.7650    -2.3860    -5.9030 H7            1 UNL     
    1478 H7          36.6740    -2.7400    -7.4070 H7            1 UNL     
    1479 H7          37.6890    -3.2540    -5.9990 H7            1 UNL     
    1480 H7          36.0220    -5.1090    -5.5790 H7            1 UNL     
    1481 H7          35.2240    -4.6670    -7.1270 H7            1 UNL     
    1482 H7          36.9220    -5.2550    -7.1270 H7            1 UNL     
    1483 H7          36.2750     1.8270    -4.5530 H7            1 UNL     
    1484 H7          35.6690     1.4700    -2.8450 H7            1 UNL     
    1485 H7          37.6870     0.0420    -2.4820 H7            1 UNL     
    1486 H7          38.3160     0.6230    -4.0910 H7            1 UNL     
    1487 H7          38.0760     2.9900    -3.1540 H7            1 UNL     
    1488 H7          37.9040     2.1470    -1.5220 H7            1 UNL     
    1489 H7          40.3080     1.9440    -3.3500 H7            1 UNL     
    1490 H7          40.0920     3.0360    -1.8490 H7            1 UNL     
    1491 H7          40.0640     0.0360    -1.7070 H7            1 UNL     
    1492 H7          41.5710     1.0730    -1.5640 H7            1 UNL     
    1493 H7          40.9290     0.6380     0.6540 H7            1 UNL     
    1494 H7          40.3490     2.3010     0.3040 H7            1 UNL     
    1495 H7          39.1910     0.9280     0.3040 H7            1 UNL     
    1496 H7          30.7590     2.1010     1.9240 H7            1 UNL     
    1497 H7          31.3820     0.5460     2.6500 H7            1 UNL     
    1498 H7          28.8800     2.1060     3.2420 H7            1 UNL     
    1499 H7          29.3920     0.1670     2.9550 H7            1 UNL     
    1500 H7          27.7060     0.8330     4.6950 H7            1 UNL     
    1501 H7          29.3220    -0.3020     4.8630 H7            1 UNL     
    1502 H7          28.2240     0.6590     6.9510 H7            1 UNL     
    1503 H7          30.1320     0.8140     6.4180 H7            1 UNL     
    1504 H7          28.4700     3.2200     6.7580 H7            1 UNL     
    1505 H7          29.3010     2.2850     8.2030 H7            1 UNL     
    1506 H7          31.1560     3.3130     7.9820 H7            1 UNL     
    1507 H7          31.0650     3.0640     6.1000 H7            1 UNL     
    1508 H7          29.9850     5.2500     5.8620 H7            1 UNL     
    1509 H7          30.1830     5.5540     7.6330 H7            1 UNL     
    1510 H7          32.7210     4.9760     7.1240 H7            1 UNL     
    1511 H7          32.1220     5.5440     5.4040 H7            1 UNL     
    1512 H7          31.6050     7.6080     7.1900 H7            1 UNL     
    1513 H7          33.3600     7.0070     7.4290 H7            1 UNL     
    1514 H7          33.7270     7.3590     5.0230 H7            1 UNL     
    1515 H7          32.0940     8.2190     5.0000 H7            1 UNL     
    1516 H7          33.4330    10.0470     5.1570 H7            1 UNL     
    1517 H7          33.2710     9.5480     6.9650 H7            1 UNL     
    1518 H7          35.6080     8.9040     5.2880 H7            1 UNL     
    1519 H7          35.4050    11.2830     7.2580 H7            1 UNL     
    1520 H7          36.8640    10.7740     6.1920 H7            1 UNL     
    1521 H7          35.7070    11.5280     4.2400 H7            1 UNL     
    1522 H7          34.3300    12.0890     5.2200 H7            1 UNL     
    1523 H7          35.9460    13.5090     6.5820 H7            1 UNL     
    1524 H7          37.2600    12.9900     5.4370 H7            1 UNL     
    1525 H7          35.5540    15.2230     5.1940 H7            1 UNL     
    1526 H7          36.7010    14.5670     3.9770 H7            1 UNL     
    1527 H7          34.9860    14.0310     3.9770 H7            1 UNL     
    1528 H7          35.4870     9.3160     8.3420 H7            1 UNL     
    1529 H7          35.3760     7.7090     7.4830 H7            1 UNL     
    1530 H7          37.6670     8.0300     6.5840 H7            1 UNL     
    1531 H7          37.7800     9.6030     7.4900 H7            1 UNL     
    1532 H7          37.6150     8.4660     9.5990 H7            1 UNL     
    1533 H7          37.3750     6.8690     8.7060 H7            1 UNL     
    1534 H7          39.8930     8.5310     8.8630 H7            1 UNL     
    1535 H7          39.5340     6.8900     9.6030 H7            1 UNL     
    1536 H7          39.7350     7.5300     6.6600 H7            1 UNL     
    1537 H7          40.9630     6.6660     7.7420 H7            1 UNL     
    1538 H7          39.0680     5.0100     8.1340 H7            1 UNL     
    1539 H7          38.3870     5.6850     6.6150 H7            1 UNL     
    1540 H7          40.0250     4.9480     6.6150 H7            1 UNL     
    1541 H7          27.8910     6.1190     0.4330 H7            1 UNL     
    1542 H7          26.0770     5.9700     0.7820 H7            1 UNL     
    1543 H7          27.8220     8.2480     1.8030 H7            1 UNL     
    1544 H7          26.6780     8.1570     0.2130 H7            1 UNL     
    1545 H7          26.0220     9.8470     1.6780 H7            1 UNL     
    1546 H7          24.9550     8.0770     1.6820 H7            1 UNL     
    1547 H7          24.4520    10.0780     3.2200 H7            1 UNL     
    1548 H7          24.5660     8.1000     3.5110 H7            1 UNL     
    1549 H7          26.3130     9.9610     4.9160 H7            1 UNL     
    1550 H7          24.5580     9.5520     5.4640 H7            1 UNL     
    1551 H7          25.1390     7.2560     5.6160 H7            1 UNL     
    1552 H7          26.9390     7.8370     5.2570 H7            1 UNL     
    1553 H7          27.0300     8.7940     7.4220 H7            1 UNL     
    1554 H7          25.4420     8.0810     7.8310 H7            1 UNL     
    1555 H7          26.2860     5.7940     7.4230 H7            1 UNL     
    1556 H7          27.8740     6.5200     6.7920 H7            1 UNL     
    1557 H7          26.9440     6.3460     9.6790 H7            1 UNL     
    1558 H7          28.3350     5.5080     8.9050 H7            1 UNL     
    1559 H7          29.3710     7.6740     8.3990 H7            1 UNL     
    1560 H7          27.9160     8.4810     9.2350 H7            1 UNL     
    1561 H7          29.1780     8.6590    10.9920 H7            1 UNL     
    1562 H7          28.9550     6.8270    11.1230 H7            1 UNL     
    1563 H7          31.2310     7.9650     9.5840 H7            1 UNL     
    1564 H7          31.3200     7.4920    12.6160 H7            1 UNL     
    1565 H7          32.6970     7.9990    11.5100 H7            1 UNL     
    1566 H7          31.4940    10.1090    11.0510 H7            1 UNL     
    1567 H7          30.2620     9.6340    12.2860 H7            1 UNL     
    1568 H7          32.0710     9.4920    13.9940 H7            1 UNL     
    1569 H7          33.2500    10.0650    12.7600 H7            1 UNL     
    1570 H7          31.7740    11.6930    14.4720 H7            1 UNL     
    1571 H7          32.5640    12.2190    12.9470 H7            1 UNL     
    1572 H7          30.8280    11.7560    12.9470 H7            1 UNL     
    1573 H7          30.9400     5.4050    11.2490 H7            1 UNL     
    1574 H7          30.8040     5.5430     9.4520 H7            1 UNL     
    1575 H7          33.1510     6.4600     9.4260 H7            1 UNL     
    1576 H7          33.2320     6.0190    11.2050 H7            1 UNL     
    1577 H7          32.9120     3.6830    10.6640 H7            1 UNL     
    1578 H7          32.8170     4.0930     8.9050 H7            1 UNL     
    1579 H7          35.1720     4.4240    10.7820 H7            1 UNL     
    1580 H7          34.9480     3.3170     9.2900 H7            1 UNL     
    1581 H7          35.0680     6.2790     9.0680 H7            1 UNL     
    1582 H7          36.5560     5.0810     9.1050 H7            1 UNL     
    1583 H7          35.8950     4.1780     7.0160 H7            1 UNL     
    1584 H7          34.5380     5.3490     6.8960 H7            1 UNL     
    1585 H7          36.2360     5.9370     6.8960 H7            1 UNL     
    1586 H7          26.5670     5.8600     4.4090 H7            1 UNL     
    1587 H7          26.6620     7.3280     3.2720 H7            1 UNL     
    1588 H7          24.4140     5.8240     4.0570 H7            1 UNL     
    1589 H7          24.8040     7.1490     2.5570 H7            1 UNL     
    1590 H7          23.5080     4.5760     2.5730 H7            1 UNL     
    1591 H7          23.2720     6.4300     1.8090 H7            1 UNL     
    1592 H7          22.9150     5.2970     0.0730 H7            1 UNL     
    1593 H7          24.8080     5.4880     0.1920 H7            1 UNL     
    1594 H7          23.8210     2.8890     0.9730 H7            1 UNL     
    1595 H7          23.5690     3.4450    -0.8410 H7            1 UNL     
    1596 H7          25.8680     3.4990    -1.2100 H7            1 UNL     
    1597 H7          26.1860     3.0050     0.5310 H7            1 UNL     
    1598 H7          25.4210     0.7550     0.1610 H7            1 UNL     
    1599 H7          24.6590     1.1980    -1.4280 H7            1 UNL     
    1600 H7          26.8750     1.6290    -2.3680 H7            1 UNL     
    1601 H7          27.4980     0.9150    -0.6500 H7            1 UNL     
    1602 H7          26.2980    -1.0410    -2.4040 H7            1 UNL     
    1603 H7          27.8820    -0.2700    -3.0050 H7            1 UNL     
    1604 H7          28.6180    -0.8490    -0.5400 H7            1 UNL     
    1605 H7          27.3190    -2.2240    -0.9830 H7            1 UNL     
    1606 H7          28.7640    -3.5470    -1.8100 H7            1 UNL     
    1607 H7          29.6140    -2.0480    -2.6750 H7            1 UNL     
    1608 H7          30.3830    -2.6040    -0.0020 H7            1 UNL     
    1609 H7          30.9980    -4.6980    -2.1090 H7            1 UNL     
    1610 H7          32.3840    -4.2110    -1.0040 H7            1 UNL     
    1611 H7          30.8480    -4.7780     0.9380 H7            1 UNL     
    1612 H7          29.7720    -5.5730    -0.2490 H7            1 UNL     
    1613 H7          31.6540    -6.9970    -1.0290 H7            1 UNL     
    1614 H7          32.7560    -6.1510     0.1480 H7            1 UNL     
    1615 H7          31.5370    -7.0520     2.0210 H7            1 UNL     
    1616 H7          30.3200    -7.7960     0.9300 H7            1 UNL     
    1617 H7          32.0130    -8.3970     0.9300 H7            1 UNL     
    1618 H7          32.3130    -2.2930    -2.4020 H7            1 UNL     
    1619 H7          31.5860    -0.9270    -1.3540 H7            1 UNL     
    1620 H7          32.9200    -2.3100     0.5200 H7            1 UNL     
    1621 H7          33.9850    -2.5670    -0.9760 H7            1 UNL     
    1622 H7          33.5770     0.1400    -1.0150 H7            1 UNL     
    1623 H7          33.7040    -0.2490     0.7800 H7            1 UNL     
    1624 H7          35.8270    -1.5430     0.0660 H7            1 UNL     
    1625 H7          35.7520    -0.4570    -1.3850 H7            1 UNL     
    1626 H7          35.8770     0.3560     1.5290 H7            1 UNL     
    1627 H7          37.1580     0.5190     0.1810 H7            1 UNL     
    1628 H7          35.4970     2.5260     1.1090 H7            1 UNL     
    1629 H7          36.4460     2.4920    -0.4160 H7            1 UNL     
    1630 H7          34.7260     1.9720    -0.4160 H7            1 UNL     
    1631 H7          41.8020     7.0290     6.4050 H7            1 UNL     
    1632 H7          43.5670     7.4610     7.0700 H7            1 UNL     
    1633 H7          42.3850     8.6460     4.6130 H7            1 UNL     
    1634 H7          42.3730     9.2960     6.4790 H7            1 UNL     
    1635 H7          43.4910    10.6950     4.8580 H7            1 UNL     
    1636 H7          44.4010     9.8820     6.3790 H7            1 UNL     
    1637 H7          45.7100    10.6820     4.4330 H7            1 UNL     
    1638 H7          45.7200     8.8350     5.1930 H7            1 UNL     
    1639 H7          45.8710     9.8150     2.4850 H7            1 UNL     
    1640 H7          46.3950     8.2090     3.6110 H7            1 UNL     
    1641 H7          45.1590     6.8850     2.6530 H7            1 UNL     
    1642 H7          44.1660     8.4350     1.8660 H7            1 UNL     
    1643 H7          45.3870     8.2940    -0.0720 H7            1 UNL     
    1644 H7          46.3060     6.8420     0.5420 H7            1 UNL     
    1645 H7          44.6590     5.4020     0.0580 H7            1 UNL     
    1646 H7          43.3640     6.6970     0.5400 H7            1 UNL     
    1647 H7          44.5700     6.2580    -2.2040 H7            1 UNL     
    1648 H7          42.8370     5.9250    -1.5740 H7            1 UNL     
    1649 H7          42.5590     8.3430    -1.2820 H7            1 UNL     
    1650 H7          44.1700     8.4790    -2.2740 H7            1 UNL     
    1651 H7          42.9050     8.9430    -3.9810 H7            1 UNL     
    1652 H7          42.5360     7.1270    -3.9240 H7            1 UNL     
    1653 H7          40.7660     9.0260    -2.4520 H7            1 UNL     
    1654 H7          40.6260     8.6950    -5.4850 H7            1 UNL     
    1655 H7          39.2310     9.2510    -4.4370 H7            1 UNL     
    1656 H7          40.6340    11.1570    -3.6560 H7            1 UNL     
    1657 H7          41.9030    10.6520    -4.8500 H7            1 UNL     
    1658 H7          40.3230    10.9950    -6.7030 H7            1 UNL     
    1659 H7          39.0410    11.4800    -5.5190 H7            1 UNL     
    1660 H7          40.7380    13.2970    -4.7530 H7            1 UNL     
    1661 H7          41.5740    12.9650    -6.3080 H7            1 UNL     
    1662 H7          39.8730    13.5420    -6.3080 H7            1 UNL     
    1663 H7          40.1380     6.4410    -3.9680 H7            1 UNL     
    1664 H7          40.4270     6.6380    -2.1680 H7            1 UNL     
    1665 H7          38.4000     8.1530    -2.0940 H7            1 UNL     
    1666 H7          38.0600     7.6460    -3.8090 H7            1 UNL     
    1667 H7          38.0990     5.2430    -2.9430 H7            1 UNL     
    1668 H7          37.9990     6.0140    -1.2740 H7            1 UNL     
    1669 H7          35.9560     6.3010    -3.4940 H7            1 UNL     
    1670 H7          35.8830     5.2280    -1.9600 H7            1 UNL     
    1671 H7          35.9130     8.2310    -1.8780 H7            1 UNL     
    1672 H7          34.4020     7.2010    -1.9530 H7            1 UNL     
    1673 H7          35.3360     8.0320     0.3600 H7            1 UNL     
    1674 H7          34.6850     6.3700     0.1590 H7            1 UNL     
    1675 H7          36.4600     6.6450     0.1590 H7            1 UNL     
    1676 H7          45.0110     6.0520     4.0800 H7            1 UNL     
    1677 H7          44.0650     7.5600     4.3070 H7            1 UNL     
    1678 H7          46.3690     6.4290     5.8420 H7            1 UNL     
    1679 H7          45.7050     8.2500     5.3740 H7            1 UNL     
    1680 H7          46.6400     7.8440     7.6460 H7            1 UNL     
    1681 H7          44.8470     8.5570     7.2170 H7            1 UNL     
    1682 H7          45.4430     7.5270     9.5410 H7            1 UNL     
    1683 H7          43.8340     7.2920     8.4200 H7            1 UNL     
    1684 H7          45.5500     4.9810     8.7940 H7            1 UNL     
    1685 H7          44.5090     5.6000    10.2330 H7            1 UNL     
    1686 H7          42.6190     4.8500     9.4200 H7            1 UNL     
    1687 H7          43.2200     5.1590     7.6460 H7            1 UNL     
    1688 H7          44.1240     2.9820     7.4710 H7            1 UNL     
    1689 H7          43.7980     2.6150     9.2060 H7            1 UNL     
    1690 H7          41.3000     3.1880     8.5660 H7            1 UNL     
    1691 H7          41.9970     2.7650     6.8480 H7            1 UNL     
    1692 H7          42.4100     0.5990     8.6080 H7            1 UNL     
    1693 H7          40.6190     1.1430     8.5770 H7            1 UNL     
    1694 H7          40.6730     0.8900     6.1270 H7            1 UNL     
    1695 H7          42.3000     0.0620     6.3440 H7            1 UNL     
    1696 H7          41.0060    -1.8060     6.2640 H7            1 UNL     
    1697 H7          40.8290    -1.3390     8.0740 H7            1 UNL     
    1698 H7          38.8330    -0.7140     5.9850 H7            1 UNL     
    1699 H7          38.6950    -3.0700     7.9820 H7            1 UNL     
    1700 H7          37.4430    -2.5790     6.6740 H7            1 UNL     
    1701 H7          38.9640    -3.3130     4.9610 H7            1 UNL     
    1702 H7          40.1140    -3.8950     6.1890 H7            1 UNL     
    1703 H7          38.2590    -5.3120     7.1910 H7            1 UNL     
    1704 H7          37.1870    -4.7590     5.8300 H7            1 UNL     
    1705 H7          39.0950    -6.9350     5.8970 H7            1 UNL     
    1706 H7          37.9060    -6.4830     4.6280 H7            1 UNL     
    1707 H7          39.5430    -5.7440     4.6280 H7            1 UNL     
    1708 H7          38.3960    -1.0340     9.0180 H7            1 UNL     
    1709 H7          38.6180     0.5430     8.1290 H7            1 UNL     
    1710 H7          36.5440     0.1100     6.8410 H7            1 UNL     
    1711 H7          36.3190    -1.4370     7.7990 H7            1 UNL     
    1712 H7          36.0580    -0.1610     9.8410 H7            1 UNL     
    1713 H7          36.2710     1.3860     8.8670 H7            1 UNL     
    1714 H7          33.9650    -0.5700     8.7560 H7            1 UNL     
    1715 H7          33.9970     1.1630     9.3590 H7            1 UNL     
    1716 H7          34.3230     0.2030     6.5150 H7            1 UNL     
    1717 H7          32.9170     1.1090     7.2890 H7            1 UNL     
    1718 H7          34.8660     2.8570     7.7670 H7            1 UNL     
    1719 H7          35.5180     2.1190     6.2650 H7            1 UNL     
    1720 H7          33.8810     2.8580     6.2650 H7            1 UNL     
    1721 H7          47.7110     2.2940     2.8980 H7            1 UNL     
    1722 H7          49.5390     2.2270     3.3430 H7            1 UNL     
    1723 H7          47.4230     0.2680     4.2630 H7            1 UNL     
    1724 H7          48.8430     0.1530     2.8860 H7            1 UNL     
    1725 H7          49.1660    -1.5860     4.3860 H7            1 UNL     
    1726 H7          50.3690    -0.1260     4.6210 H7            1 UNL     
    1727 H7          49.9590    -1.5360     6.3960 H7            1 UNL     
    1728 H7          48.7450     0.2900     6.3460 H7            1 UNL     
    1729 H7          48.2470    -1.6020     8.0740 H7            1 UNL     
    1730 H7          49.8850    -0.9420     8.4650 H7            1 UNL     
    1731 H7          49.0950     1.3190     8.4610 H7            1 UNL     
    1732 H7          47.4540     0.7140     7.7490 H7            1 UNL     
    1733 H7          46.9560    -0.2540     9.9340 H7            1 UNL     
    1734 H7          48.3760     0.6160    10.6060 H7            1 UNL     
    1735 H7          47.4520     2.7870     9.9910 H7            1 UNL     
    1736 H7          46.1200     1.9460     9.0200 H7            1 UNL     
    1737 H7          46.3460     2.1360    12.0500 H7            1 UNL     
    1738 H7          45.1200     2.9080    10.9790 H7            1 UNL     
    1739 H7          44.3570     0.6930    10.2420 H7            1 UNL     
    1740 H7          45.6220    -0.0430    11.3920 H7            1 UNL     
    1741 H7          43.9360    -0.3510    12.7350 H7            1 UNL     
    1742 H7          44.1550     1.4700    13.0280 H7            1 UNL     
    1743 H7          42.2180     0.4480    11.0050 H7            1 UNL     
    1744 H7          41.5580     0.8860    13.9770 H7            1 UNL     
    1745 H7          40.4160     0.4050    12.6190 H7            1 UNL     
    1746 H7          41.6560    -1.7200    12.3860 H7            1 UNL     
    1747 H7          42.6280    -1.2670    13.8460 H7            1 UNL     
    1748 H7          40.5300    -1.1350    15.1710 H7            1 UNL     
    1749 H7          39.6050    -1.6790    13.7260 H7            1 UNL     
    1750 H7          40.9090    -3.3000    15.6840 H7            1 UNL     
    1751 H7          40.1040    -3.8320    14.1690 H7            1 UNL     
    1752 H7          41.8600    -3.4570    14.1690 H7            1 UNL     
    1753 H7          42.3120     3.0210    12.6590 H7            1 UNL     
    1754 H7          42.6790     2.8330    10.9070 H7            1 UNL     
    1755 H7          40.3510     1.9350    10.5970 H7            1 UNL     
    1756 H7          40.0730     2.4560    12.3660 H7            1 UNL     
    1757 H7          40.4040     4.7680    11.7200 H7            1 UNL     
    1758 H7          40.5450     4.2800    10.0020 H7            1 UNL     
    1759 H7          38.1620     3.9150    11.8770 H7            1 UNL     
    1760 H7          38.3020     4.9180    10.3310 H7            1 UNL     
    1761 H7          38.4090     1.8970    10.3710 H7            1 UNL     
    1762 H7          36.8820     2.8970    10.1560 H7            1 UNL     
    1763 H7          39.2190     3.3720     8.3340 H7            1 UNL     
    1764 H7          38.1600     1.9470     8.0600 H7            1 UNL     
    1765 H7          37.4580     3.6000     8.0600 H7            1 UNL     
    1766 H7          48.4950     2.7610     6.9390 H7            1 UNL     
    1767 H7          48.7130     1.2720     5.8720 H7            1 UNL     
    1768 H7          50.6770     3.4170     6.6230 H7            1 UNL     
    1769 H7          50.7240     1.4900     6.5840 H7            1 UNL     
    1770 H7          52.4450     2.7860     5.3450 H7            1 UNL     
    1771 H7          51.1440     1.4570     4.5150 H7            1 UNL     
    1772 H7          52.6500     2.7590     3.0480 H7            1 UNL     
    1773 H7          50.6430     2.7120     3.0300 H7            1 UNL     
    1774 H7          51.8630     5.2510     3.4710 H7            1 UNL     
    1775 H7          52.0020     4.4050     1.7430 H7            1 UNL     
    1776 H7          49.8180     4.7010     1.2510 H7            1 UNL     
    1777 H7          49.4070     5.1340     3.0100 H7            1 UNL     
    1778 H7          50.1740     7.3750     2.7800 H7            1 UNL     
    1779 H7          51.0110     6.9870     1.1880 H7            1 UNL     
    1780 H7          48.7830     6.6650     0.1520 H7            1 UNL     
    1781 H7          48.1740     7.4690     1.8440 H7            1 UNL     
    1782 H7          49.5290     9.4100     0.3330 H7            1 UNL     
    1783 H7          48.1710     8.6090    -0.6830 H7            1 UNL     
    1784 H7          46.8520     9.1440     1.5620 H7            1 UNL     
    1785 H7          48.1550    10.6240     1.2400 H7            1 UNL     
    1786 H7          46.7660    11.8600     0.3240 H7            1 UNL     
    1787 H7          46.0820    10.3150    -0.6340 H7            1 UNL     
    1788 H7          44.9390    10.8980     1.8910 H7            1 UNL     
    1789 H7          44.5300    12.9050    -0.3560 H7            1 UNL     
    1790 H7          43.0200    12.4060     0.5530 H7            1 UNL     
    1791 H7          44.2200    13.0800     2.6800 H7            1 UNL     
    1792 H7          45.4750    13.8370     1.6520 H7            1 UNL     
    1793 H7          43.7590    15.2330     0.5420 H7            1 UNL     
    1794 H7          42.4710    14.4200     1.5310 H7            1 UNL     
    1795 H7          43.6100    15.2890     3.5890 H7            1 UNL     
    1796 H7          44.6940    16.2460     2.5230 H7            1 UNL     
    1797 H7          42.9260    16.5630     2.5230 H7            1 UNL     
    1798 H7          43.1530    10.5680    -0.6050 H7            1 UNL     
    1799 H7          43.9950     9.1630     0.2650 H7            1 UNL     
    1800 H7          42.6690     9.9640     2.3520 H7            1 UNL     
    1801 H7          41.6050    10.8000     1.1180 H7            1 UNL     
    1802 H7          42.1860     7.9280     0.6150 H7            1 UNL     
    1803 H7          41.1140     8.3760     2.0720 H7            1 UNL     
    1804 H7          40.2370     9.6830    -0.3320 H7            1 UNL     
    1805 H7          40.2920     7.8710    -0.5110 H7            1 UNL     
    1806 H7          38.9810     9.2720     1.8440 H7            1 UNL     
    1807 H7          38.1060     8.8240     0.3290 H7            1 UNL     
    1808 H7          38.7750     7.1580     2.6040 H7            1 UNL     
    1809 H7          37.8200     6.7470     1.1400 H7            1 UNL     
    1810 H7          39.6020     6.5270     1.1400 H7            1 UNL     
@<TRIPOS>BOND
       1        2        1 1
       2        9        1 1
       3       57        1 1
       4       79        1 1
       5        3        2 1
       6       18        2 1
       7        4        3 1
       8       16        3 1
       9        5        4 1
      10        9        4 1
      11        6        5 1
      12      697        5 1
      13        7        6 1
      14       12        6 1
      15        8        7 1
      16       10        7 1
      17        9        8 1
      18      698        8 1
      19       11       10 1
      20       15       10 1
      21       12       11 1
      22       13       11 1
      23      101       12 1
      24      123       12 1
      25       14       13 1
      26      699       13 1
      27       15       14 1
      28      700       14 1
      29       17       16 1
      30       18       17 1
      31       22       17 1
      32      701       18 1
      33       20       19 1
      34       21       19 1
      35       28       19 1
      36       22       21 1
      37      702       21 1
      38       23       22 1
      39       24       23 1
      40       27       23 1
      41       25       24 1
      42       26       25 1
      43       27       26 1
      44       28       27 1
      45       45       28 1
      46       30       29 1
      47       37       29 1
      48      145       29 1
      49      167       29 1
      50       31       30 1
      51       46       30 1
      52       32       31 1
      53       44       31 1
      54       33       32 1
      55       37       32 1
      56       34       33 1
      57      703       33 1
      58       35       34 1
      59       40       34 1
      60       36       35 1
      61       38       35 1
      62       37       36 1
      63      704       36 1
      64       39       38 1
      65       43       38 1
      66       40       39 1
      67       41       39 1
      68      189       40 1
      69      211       40 1
      70       42       41 1
      71      705       41 1
      72       43       42 1
      73       56       42 1
      74       45       44 1
      75       46       45 1
      76      706       46 1
      77       48       47 1
      78       49       47 1
      79       56       47 1
      80       50       49 1
      81      707       49 1
      82       51       50 1
      83      708       50 1
      84       52       51 1
      85       55       51 1
      86       53       52 1
      87       54       53 1
      88       55       54 1
      89       56       55 1
      90       58       57 1
      91      709       57 1
      92      710       57 1
      93       59       58 1
      94      711       58 1
      95      712       58 1
      96       60       59 1
      97      713       59 1
      98      714       59 1
      99       61       60 1
     100      715       60 1
     101      716       60 1
     102       62       61 1
     103      717       61 1
     104      718       61 1
     105       63       62 1
     106      719       62 1
     107      720       62 1
     108       64       63 1
     109      721       63 1
     110      722       63 1
     111       65       64 1
     112      723       64 1
     113      724       64 1
     114       66       65 1
     115      725       65 1
     116      726       65 1
     117       67       66 1
     118      727       66 1
     119      728       66 1
     120       68       67 1
     121      729       67 1
     122      730       67 1
     123       69       68 1
     124       73       68 1
     125      731       68 1
     126       70       69 1
     127      732       69 1
     128      733       69 1
     129       71       70 1
     130      734       70 1
     131      735       70 1
     132       72       71 1
     133      736       71 1
     134      737       71 1
     135      738       72 1
     136      739       72 1
     137      740       72 1
     138       74       73 1
     139      741       73 1
     140      742       73 1
     141       75       74 1
     142      743       74 1
     143      744       74 1
     144       76       75 1
     145      745       75 1
     146      746       75 1
     147       77       76 1
     148      747       76 1
     149      748       76 1
     150       78       77 1
     151      749       77 1
     152      750       77 1
     153      751       78 1
     154      752       78 1
     155      753       78 1
     156       80       79 1
     157      754       79 1
     158      755       79 1
     159       81       80 1
     160      756       80 1
     161      757       80 1
     162       82       81 1
     163      758       81 1
     164      759       81 1
     165       83       82 1
     166      760       82 1
     167      761       82 1
     168       84       83 1
     169      762       83 1
     170      763       83 1
     171       85       84 1
     172      764       84 1
     173      765       84 1
     174       86       85 1
     175      766       85 1
     176      767       85 1
     177       87       86 1
     178      768       86 1
     179      769       86 1
     180       88       87 1
     181      770       87 1
     182      771       87 1
     183       89       88 1
     184      772       88 1
     185      773       88 1
     186       90       89 1
     187      774       89 1
     188      775       89 1
     189       91       90 1
     190       95       90 1
     191      776       90 1
     192       92       91 1
     193      777       91 1
     194      778       91 1
     195       93       92 1
     196      779       92 1
     197      780       92 1
     198       94       93 1
     199      781       93 1
     200      782       93 1
     201      783       94 1
     202      784       94 1
     203      785       94 1
     204       96       95 1
     205      786       95 1
     206      787       95 1
     207       97       96 1
     208      788       96 1
     209      789       96 1
     210       98       97 1
     211      790       97 1
     212      791       97 1
     213       99       98 1
     214      792       98 1
     215      793       98 1
     216      100       99 1
     217      794       99 1
     218      795       99 1
     219      796      100 1
     220      797      100 1
     221      798      100 1
     222      102      101 1
     223      799      101 1
     224      800      101 1
     225      103      102 1
     226      801      102 1
     227      802      102 1
     228      104      103 1
     229      803      103 1
     230      804      103 1
     231      105      104 1
     232      805      104 1
     233      806      104 1
     234      106      105 1
     235      807      105 1
     236      808      105 1
     237      107      106 1
     238      809      106 1
     239      810      106 1
     240      108      107 1
     241      811      107 1
     242      812      107 1
     243      109      108 1
     244      813      108 1
     245      814      108 1
     246      110      109 1
     247      815      109 1
     248      816      109 1
     249      111      110 1
     250      817      110 1
     251      818      110 1
     252      112      111 1
     253      819      111 1
     254      820      111 1
     255      113      112 1
     256      117      112 1
     257      821      112 1
     258      114      113 1
     259      822      113 1
     260      823      113 1
     261      115      114 1
     262      824      114 1
     263      825      114 1
     264      116      115 1
     265      826      115 1
     266      827      115 1
     267      828      116 1
     268      829      116 1
     269      830      116 1
     270      118      117 1
     271      831      117 1
     272      832      117 1
     273      119      118 1
     274      833      118 1
     275      834      118 1
     276      120      119 1
     277      835      119 1
     278      836      119 1
     279      121      120 1
     280      837      120 1
     281      838      120 1
     282      122      121 1
     283      839      121 1
     284      840      121 1
     285      841      122 1
     286      842      122 1
     287      843      122 1
     288      124      123 1
     289      844      123 1
     290      845      123 1
     291      125      124 1
     292      846      124 1
     293      847      124 1
     294      126      125 1
     295      848      125 1
     296      849      125 1
     297      127      126 1
     298      850      126 1
     299      851      126 1
     300      128      127 1
     301      852      127 1
     302      853      127 1
     303      129      128 1
     304      854      128 1
     305      855      128 1
     306      130      129 1
     307      856      129 1
     308      857      129 1
     309      131      130 1
     310      858      130 1
     311      859      130 1
     312      132      131 1
     313      860      131 1
     314      861      131 1
     315      133      132 1
     316      862      132 1
     317      863      132 1
     318      134      133 1
     319      864      133 1
     320      865      133 1
     321      135      134 1
     322      139      134 1
     323      866      134 1
     324      136      135 1
     325      867      135 1
     326      868      135 1
     327      137      136 1
     328      869      136 1
     329      870      136 1
     330      138      137 1
     331      871      137 1
     332      872      137 1
     333      873      138 1
     334      874      138 1
     335      875      138 1
     336      140      139 1
     337      876      139 1
     338      877      139 1
     339      141      140 1
     340      878      140 1
     341      879      140 1
     342      142      141 1
     343      880      141 1
     344      881      141 1
     345      143      142 1
     346      882      142 1
     347      883      142 1
     348      144      143 1
     349      884      143 1
     350      885      143 1
     351      886      144 1
     352      887      144 1
     353      888      144 1
     354      146      145 1
     355      889      145 1
     356      890      145 1
     357      147      146 1
     358      891      146 1
     359      892      146 1
     360      148      147 1
     361      893      147 1
     362      894      147 1
     363      149      148 1
     364      895      148 1
     365      896      148 1
     366      150      149 1
     367      897      149 1
     368      898      149 1
     369      151      150 1
     370      899      150 1
     371      900      150 1
     372      152      151 1
     373      901      151 1
     374      902      151 1
     375      153      152 1
     376      903      152 1
     377      904      152 1
     378      154      153 1
     379      905      153 1
     380      906      153 1
     381      155      154 1
     382      907      154 1
     383      908      154 1
     384      156      155 1
     385      909      155 1
     386      910      155 1
     387      157      156 1
     388      161      156 1
     389      911      156 1
     390      158      157 1
     391      912      157 1
     392      913      157 1
     393      159      158 1
     394      914      158 1
     395      915      158 1
     396      160      159 1
     397      916      159 1
     398      917      159 1
     399      918      160 1
     400      919      160 1
     401      920      160 1
     402      162      161 1
     403      921      161 1
     404      922      161 1
     405      163      162 1
     406      923      162 1
     407      924      162 1
     408      164      163 1
     409      925      163 1
     410      926      163 1
     411      165      164 1
     412      927      164 1
     413      928      164 1
     414      166      165 1
     415      929      165 1
     416      930      165 1
     417      931      166 1
     418      932      166 1
     419      933      166 1
     420      168      167 1
     421      934      167 1
     422      935      167 1
     423      169      168 1
     424      936      168 1
     425      937      168 1
     426      170      169 1
     427      938      169 1
     428      939      169 1
     429      171      170 1
     430      940      170 1
     431      941      170 1
     432      172      171 1
     433      942      171 1
     434      943      171 1
     435      173      172 1
     436      944      172 1
     437      945      172 1
     438      174      173 1
     439      946      173 1
     440      947      173 1
     441      175      174 1
     442      948      174 1
     443      949      174 1
     444      176      175 1
     445      950      175 1
     446      951      175 1
     447      177      176 1
     448      952      176 1
     449      953      176 1
     450      178      177 1
     451      954      177 1
     452      955      177 1
     453      179      178 1
     454      183      178 1
     455      956      178 1
     456      180      179 1
     457      957      179 1
     458      958      179 1
     459      181      180 1
     460      959      180 1
     461      960      180 1
     462      182      181 1
     463      961      181 1
     464      962      181 1
     465      963      182 1
     466      964      182 1
     467      965      182 1
     468      184      183 1
     469      966      183 1
     470      967      183 1
     471      185      184 1
     472      968      184 1
     473      969      184 1
     474      186      185 1
     475      970      185 1
     476      971      185 1
     477      187      186 1
     478      972      186 1
     479      973      186 1
     480      188      187 1
     481      974      187 1
     482      975      187 1
     483      976      188 1
     484      977      188 1
     485      978      188 1
     486      190      189 1
     487      979      189 1
     488      980      189 1
     489      191      190 1
     490      981      190 1
     491      982      190 1
     492      192      191 1
     493      983      191 1
     494      984      191 1
     495      193      192 1
     496      985      192 1
     497      986      192 1
     498      194      193 1
     499      987      193 1
     500      988      193 1
     501      195      194 1
     502      989      194 1
     503      990      194 1
     504      196      195 1
     505      991      195 1
     506      992      195 1
     507      197      196 1
     508      993      196 1
     509      994      196 1
     510      198      197 1
     511      995      197 1
     512      996      197 1
     513      199      198 1
     514      997      198 1
     515      998      198 1
     516      200      199 1
     517      999      199 1
     518     1000      199 1
     519      201      200 1
     520      205      200 1
     521     1001      200 1
     522      202      201 1
     523     1002      201 1
     524     1003      201 1
     525      203      202 1
     526     1004      202 1
     527     1005      202 1
     528      204      203 1
     529     1006      203 1
     530     1007      203 1
     531     1008      204 1
     532     1009      204 1
     533     1010      204 1
     534      206      205 1
     535     1011      205 1
     536     1012      205 1
     537      207      206 1
     538     1013      206 1
     539     1014      206 1
     540      208      207 1
     541     1015      207 1
     542     1016      207 1
     543      209      208 1
     544     1017      208 1
     545     1018      208 1
     546      210      209 1
     547     1019      209 1
     548     1020      209 1
     549     1021      210 1
     550     1022      210 1
     551     1023      210 1
     552      212      211 1
     553     1024      211 1
     554     1025      211 1
     555      213      212 1
     556     1026      212 1
     557     1027      212 1
     558      214      213 1
     559     1028      213 1
     560     1029      213 1
     561      215      214 1
     562     1030      214 1
     563     1031      214 1
     564      216      215 1
     565     1032      215 1
     566     1033      215 1
     567      217      216 1
     568     1034      216 1
     569     1035      216 1
     570      218      217 1
     571     1036      217 1
     572     1037      217 1
     573      219      218 1
     574     1038      218 1
     575     1039      218 1
     576      220      219 1
     577     1040      219 1
     578     1041      219 1
     579      221      220 1
     580     1042      220 1
     581     1043      220 1
     582      222      221 1
     583     1044      221 1
     584     1045      221 1
     585      223      222 1
     586      227      222 1
     587     1046      222 1
     588      224      223 1
     589     1047      223 1
     590     1048      223 1
     591      225      224 1
     592     1049      224 1
     593     1050      224 1
     594      226      225 1
     595     1051      225 1
     596     1052      225 1
     597     1053      226 1
     598     1054      226 1
     599     1055      226 1
     600      228      227 1
     601     1056      227 1
     602     1057      227 1
     603      229      228 1
     604     1058      228 1
     605     1059      228 1
     606      230      229 1
     607     1060      229 1
     608     1061      229 1
     609      231      230 1
     610     1062      230 1
     611     1063      230 1
     612      232      231 1
     613     1064      231 1
     614     1065      231 1
     615     1066      232 1
     616     1067      232 1
     617     1068      232 1
     618      234      233 1
     619      241      233 1
     620      289      233 1
     621      311      233 1
     622      235      234 1
     623      250      234 1
     624      236      235 1
     625      248      235 1
     626      237      236 1
     627      241      236 1
     628      238      237 1
     629     1069      237 1
     630      239      238 1
     631      244      238 1
     632      240      239 1
     633      242      239 1
     634      241      240 1
     635     1070      240 1
     636      243      242 1
     637      247      242 1
     638      244      243 1
     639      245      243 1
     640      333      244 1
     641      355      244 1
     642      246      245 1
     643     1071      245 1
     644      247      246 1
     645     1072      246 1
     646      249      248 1
     647      250      249 1
     648      254      249 1
     649     1073      250 1
     650      252      251 1
     651      253      251 1
     652      260      251 1
     653      254      253 1
     654     1074      253 1
     655      255      254 1
     656      256      255 1
     657      259      255 1
     658      257      256 1
     659      258      257 1
     660      259      258 1
     661      260      259 1
     662      277      260 1
     663      262      261 1
     664      269      261 1
     665      377      261 1
     666      399      261 1
     667      263      262 1
     668      278      262 1
     669      264      263 1
     670      276      263 1
     671      265      264 1
     672      269      264 1
     673      266      265 1
     674     1075      265 1
     675      267      266 1
     676      272      266 1
     677      268      267 1
     678      270      267 1
     679      269      268 1
     680     1076      268 1
     681      271      270 1
     682      275      270 1
     683      272      271 1
     684      273      271 1
     685      421      272 1
     686      443      272 1
     687      274      273 1
     688     1077      273 1
     689      275      274 1
     690      288      274 1
     691      277      276 1
     692      278      277 1
     693     1078      278 1
     694      280      279 1
     695      281      279 1
     696      288      279 1
     697      282      281 1
     698     1079      281 1
     699      283      282 1
     700      478      282 1
     701      284      283 1
     702      287      283 1
     703      285      284 1
     704      286      285 1
     705      287      286 1
     706      288      287 1
     707      290      289 1
     708     1080      289 1
     709     1081      289 1
     710      291      290 1
     711     1082      290 1
     712     1083      290 1
     713      292      291 1
     714     1084      291 1
     715     1085      291 1
     716      293      292 1
     717     1086      292 1
     718     1087      292 1
     719      294      293 1
     720     1088      293 1
     721     1089      293 1
     722      295      294 1
     723     1090      294 1
     724     1091      294 1
     725      296      295 1
     726     1092      295 1
     727     1093      295 1
     728      297      296 1
     729     1094      296 1
     730     1095      296 1
     731      298      297 1
     732     1096      297 1
     733     1097      297 1
     734      299      298 1
     735     1098      298 1
     736     1099      298 1
     737      300      299 1
     738     1100      299 1
     739     1101      299 1
     740      301      300 1
     741      305      300 1
     742     1102      300 1
     743      302      301 1
     744     1103      301 1
     745     1104      301 1
     746      303      302 1
     747     1105      302 1
     748     1106      302 1
     749      304      303 1
     750     1107      303 1
     751     1108      303 1
     752     1109      304 1
     753     1110      304 1
     754     1111      304 1
     755      306      305 1
     756     1112      305 1
     757     1113      305 1
     758      307      306 1
     759     1114      306 1
     760     1115      306 1
     761      308      307 1
     762     1116      307 1
     763     1117      307 1
     764      309      308 1
     765     1118      308 1
     766     1119      308 1
     767      310      309 1
     768     1120      309 1
     769     1121      309 1
     770     1122      310 1
     771     1123      310 1
     772     1124      310 1
     773      312      311 1
     774     1125      311 1
     775     1126      311 1
     776      313      312 1
     777     1127      312 1
     778     1128      312 1
     779      314      313 1
     780     1129      313 1
     781     1130      313 1
     782      315      314 1
     783     1131      314 1
     784     1132      314 1
     785      316      315 1
     786     1133      315 1
     787     1134      315 1
     788      317      316 1
     789     1135      316 1
     790     1136      316 1
     791      318      317 1
     792     1137      317 1
     793     1138      317 1
     794      319      318 1
     795     1139      318 1
     796     1140      318 1
     797      320      319 1
     798     1141      319 1
     799     1142      319 1
     800      321      320 1
     801     1143      320 1
     802     1144      320 1
     803      322      321 1
     804     1145      321 1
     805     1146      321 1
     806      323      322 1
     807      327      322 1
     808     1147      322 1
     809      324      323 1
     810     1148      323 1
     811     1149      323 1
     812      325      324 1
     813     1150      324 1
     814     1151      324 1
     815      326      325 1
     816     1152      325 1
     817     1153      325 1
     818     1154      326 1
     819     1155      326 1
     820     1156      326 1
     821      328      327 1
     822     1157      327 1
     823     1158      327 1
     824      329      328 1
     825     1159      328 1
     826     1160      328 1
     827      330      329 1
     828     1161      329 1
     829     1162      329 1
     830      331      330 1
     831     1163      330 1
     832     1164      330 1
     833      332      331 1
     834     1165      331 1
     835     1166      331 1
     836     1167      332 1
     837     1168      332 1
     838     1169      332 1
     839      334      333 1
     840     1170      333 1
     841     1171      333 1
     842      335      334 1
     843     1172      334 1
     844     1173      334 1
     845      336      335 1
     846     1174      335 1
     847     1175      335 1
     848      337      336 1
     849     1176      336 1
     850     1177      336 1
     851      338      337 1
     852     1178      337 1
     853     1179      337 1
     854      339      338 1
     855     1180      338 1
     856     1181      338 1
     857      340      339 1
     858     1182      339 1
     859     1183      339 1
     860      341      340 1
     861     1184      340 1
     862     1185      340 1
     863      342      341 1
     864     1186      341 1
     865     1187      341 1
     866      343      342 1
     867     1188      342 1
     868     1189      342 1
     869      344      343 1
     870     1190      343 1
     871     1191      343 1
     872      345      344 1
     873      349      344 1
     874     1192      344 1
     875      346      345 1
     876     1193      345 1
     877     1194      345 1
     878      347      346 1
     879     1195      346 1
     880     1196      346 1
     881      348      347 1
     882     1197      347 1
     883     1198      347 1
     884     1199      348 1
     885     1200      348 1
     886     1201      348 1
     887      350      349 1
     888     1202      349 1
     889     1203      349 1
     890      351      350 1
     891     1204      350 1
     892     1205      350 1
     893      352      351 1
     894     1206      351 1
     895     1207      351 1
     896      353      352 1
     897     1208      352 1
     898     1209      352 1
     899      354      353 1
     900     1210      353 1
     901     1211      353 1
     902     1212      354 1
     903     1213      354 1
     904     1214      354 1
     905      356      355 1
     906     1215      355 1
     907     1216      355 1
     908      357      356 1
     909     1217      356 1
     910     1218      356 1
     911      358      357 1
     912     1219      357 1
     913     1220      357 1
     914      359      358 1
     915     1221      358 1
     916     1222      358 1
     917      360      359 1
     918     1223      359 1
     919     1224      359 1
     920      361      360 1
     921     1225      360 1
     922     1226      360 1
     923      362      361 1
     924     1227      361 1
     925     1228      361 1
     926      363      362 1
     927     1229      362 1
     928     1230      362 1
     929      364      363 1
     930     1231      363 1
     931     1232      363 1
     932      365      364 1
     933     1233      364 1
     934     1234      364 1
     935      366      365 1
     936     1235      365 1
     937     1236      365 1
     938      367      366 1
     939      371      366 1
     940     1237      366 1
     941      368      367 1
     942     1238      367 1
     943     1239      367 1
     944      369      368 1
     945     1240      368 1
     946     1241      368 1
     947      370      369 1
     948     1242      369 1
     949     1243      369 1
     950     1244      370 1
     951     1245      370 1
     952     1246      370 1
     953      372      371 1
     954     1247      371 1
     955     1248      371 1
     956      373      372 1
     957     1249      372 1
     958     1250      372 1
     959      374      373 1
     960     1251      373 1
     961     1252      373 1
     962      375      374 1
     963     1253      374 1
     964     1254      374 1
     965      376      375 1
     966     1255      375 1
     967     1256      375 1
     968     1257      376 1
     969     1258      376 1
     970     1259      376 1
     971      378      377 1
     972     1260      377 1
     973     1261      377 1
     974      379      378 1
     975     1262      378 1
     976     1263      378 1
     977      380      379 1
     978     1264      379 1
     979     1265      379 1
     980      381      380 1
     981     1266      380 1
     982     1267      380 1
     983      382      381 1
     984     1268      381 1
     985     1269      381 1
     986      383      382 1
     987     1270      382 1
     988     1271      382 1
     989      384      383 1
     990     1272      383 1
     991     1273      383 1
     992      385      384 1
     993     1274      384 1
     994     1275      384 1
     995      386      385 1
     996     1276      385 1
     997     1277      385 1
     998      387      386 1
     999     1278      386 1
    1000     1279      386 1
    1001      388      387 1
    1002     1280      387 1
    1003     1281      387 1
    1004      389      388 1
    1005      393      388 1
    1006     1282      388 1
    1007      390      389 1
    1008     1283      389 1
    1009     1284      389 1
    1010      391      390 1
    1011     1285      390 1
    1012     1286      390 1
    1013      392      391 1
    1014     1287      391 1
    1015     1288      391 1
    1016     1289      392 1
    1017     1290      392 1
    1018     1291      392 1
    1019      394      393 1
    1020     1292      393 1
    1021     1293      393 1
    1022      395      394 1
    1023     1294      394 1
    1024     1295      394 1
    1025      396      395 1
    1026     1296      395 1
    1027     1297      395 1
    1028      397      396 1
    1029     1298      396 1
    1030     1299      396 1
    1031      398      397 1
    1032     1300      397 1
    1033     1301      397 1
    1034     1302      398 1
    1035     1303      398 1
    1036     1304      398 1
    1037      400      399 1
    1038     1305      399 1
    1039     1306      399 1
    1040      401      400 1
    1041     1307      400 1
    1042     1308      400 1
    1043      402      401 1
    1044     1309      401 1
    1045     1310      401 1
    1046      403      402 1
    1047     1311      402 1
    1048     1312      402 1
    1049      404      403 1
    1050     1313      403 1
    1051     1314      403 1
    1052      405      404 1
    1053     1315      404 1
    1054     1316      404 1
    1055      406      405 1
    1056     1317      405 1
    1057     1318      405 1
    1058      407      406 1
    1059     1319      406 1
    1060     1320      406 1
    1061      408      407 1
    1062     1321      407 1
    1063     1322      407 1
    1064      409      408 1
    1065     1323      408 1
    1066     1324      408 1
    1067      410      409 1
    1068     1325      409 1
    1069     1326      409 1
    1070      411      410 1
    1071      415      410 1
    1072     1327      410 1
    1073      412      411 1
    1074     1328      411 1
    1075     1329      411 1
    1076      413      412 1
    1077     1330      412 1
    1078     1331      412 1
    1079      414      413 1
    1080     1332      413 1
    1081     1333      413 1
    1082     1334      414 1
    1083     1335      414 1
    1084     1336      414 1
    1085      416      415 1
    1086     1337      415 1
    1087     1338      415 1
    1088      417      416 1
    1089     1339      416 1
    1090     1340      416 1
    1091      418      417 1
    1092     1341      417 1
    1093     1342      417 1
    1094      419      418 1
    1095     1343      418 1
    1096     1344      418 1
    1097      420      419 1
    1098     1345      419 1
    1099     1346      419 1
    1100     1347      420 1
    1101     1348      420 1
    1102     1349      420 1
    1103      422      421 1
    1104     1350      421 1
    1105     1351      421 1
    1106      423      422 1
    1107     1352      422 1
    1108     1353      422 1
    1109      424      423 1
    1110     1354      423 1
    1111     1355      423 1
    1112      425      424 1
    1113     1356      424 1
    1114     1357      424 1
    1115      426      425 1
    1116     1358      425 1
    1117     1359      425 1
    1118      427      426 1
    1119     1360      426 1
    1120     1361      426 1
    1121      428      427 1
    1122     1362      427 1
    1123     1363      427 1
    1124      429      428 1
    1125     1364      428 1
    1126     1365      428 1
    1127      430      429 1
    1128     1366      429 1
    1129     1367      429 1
    1130      431      430 1
    1131     1368      430 1
    1132     1369      430 1
    1133      432      431 1
    1134     1370      431 1
    1135     1371      431 1
    1136      433      432 1
    1137      437      432 1
    1138     1372      432 1
    1139      434      433 1
    1140     1373      433 1
    1141     1374      433 1
    1142      435      434 1
    1143     1375      434 1
    1144     1376      434 1
    1145      436      435 1
    1146     1377      435 1
    1147     1378      435 1
    1148     1379      436 1
    1149     1380      436 1
    1150     1381      436 1
    1151      438      437 1
    1152     1382      437 1
    1153     1383      437 1
    1154      439      438 1
    1155     1384      438 1
    1156     1385      438 1
    1157      440      439 1
    1158     1386      439 1
    1159     1387      439 1
    1160      441      440 1
    1161     1388      440 1
    1162     1389      440 1
    1163      442      441 1
    1164     1390      441 1
    1165     1391      441 1
    1166     1392      442 1
    1167     1393      442 1
    1168     1394      442 1
    1169      444      443 1
    1170     1395      443 1
    1171     1396      443 1
    1172      445      444 1
    1173     1397      444 1
    1174     1398      444 1
    1175      446      445 1
    1176     1399      445 1
    1177     1400      445 1
    1178      447      446 1
    1179     1401      446 1
    1180     1402      446 1
    1181      448      447 1
    1182     1403      447 1
    1183     1404      447 1
    1184      449      448 1
    1185     1405      448 1
    1186     1406      448 1
    1187      450      449 1
    1188     1407      449 1
    1189     1408      449 1
    1190      451      450 1
    1191     1409      450 1
    1192     1410      450 1
    1193      452      451 1
    1194     1411      451 1
    1195     1412      451 1
    1196      453      452 1
    1197     1413      452 1
    1198     1414      452 1
    1199      454      453 1
    1200     1415      453 1
    1201     1416      453 1
    1202      455      454 1
    1203      459      454 1
    1204     1417      454 1
    1205      456      455 1
    1206     1418      455 1
    1207     1419      455 1
    1208      457      456 1
    1209     1420      456 1
    1210     1421      456 1
    1211      458      457 1
    1212     1422      457 1
    1213     1423      457 1
    1214     1424      458 1
    1215     1425      458 1
    1216     1426      458 1
    1217      460      459 1
    1218     1427      459 1
    1219     1428      459 1
    1220      461      460 1
    1221     1429      460 1
    1222     1430      460 1
    1223      462      461 1
    1224     1431      461 1
    1225     1432      461 1
    1226      463      462 1
    1227     1433      462 1
    1228     1434      462 1
    1229      464      463 1
    1230     1435      463 1
    1231     1436      463 1
    1232     1437      464 1
    1233     1438      464 1
    1234     1439      464 1
    1235      466      465 1
    1236      473      465 1
    1237      521      465 1
    1238      543      465 1
    1239      467      466 1
    1240      482      466 1
    1241      468      467 1
    1242      480      467 1
    1243      469      468 1
    1244      473      468 1
    1245      470      469 1
    1246     1440      469 1
    1247      471      470 1
    1248      476      470 1
    1249      472      471 1
    1250      474      471 1
    1251      473      472 1
    1252     1441      472 1
    1253      475      474 1
    1254      479      474 1
    1255      476      475 1
    1256      477      475 1
    1257      565      476 1
    1258      587      476 1
    1259      478      477 1
    1260     1442      477 1
    1261      479      478 1
    1262      481      480 1
    1263      482      481 1
    1264      486      481 1
    1265     1443      482 1
    1266      484      483 1
    1267      485      483 1
    1268      492      483 1
    1269      486      485 1
    1270     1444      485 1
    1271      487      486 1
    1272      488      487 1
    1273      491      487 1
    1274      489      488 1
    1275      490      489 1
    1276      491      490 1
    1277      492      491 1
    1278      509      492 1
    1279      494      493 1
    1280      501      493 1
    1281      609      493 1
    1282      631      493 1
    1283      495      494 1
    1284      510      494 1
    1285      496      495 1
    1286      508      495 1
    1287      497      496 1
    1288      501      496 1
    1289      498      497 1
    1290     1445      497 1
    1291      499      498 1
    1292      504      498 1
    1293      500      499 1
    1294      502      499 1
    1295      501      500 1
    1296     1446      500 1
    1297      503      502 1
    1298      507      502 1
    1299      504      503 1
    1300      505      503 1
    1301      653      504 1
    1302      675      504 1
    1303      506      505 1
    1304     1447      505 1
    1305      507      506 1
    1306      520      506 1
    1307      509      508 1
    1308      510      509 1
    1309     1448      510 1
    1310      512      511 1
    1311      513      511 1
    1312      520      511 1
    1313      514      513 1
    1314     1449      513 1
    1315      515      514 1
    1316     1450      514 1
    1317      516      515 1
    1318      519      515 1
    1319      517      516 1
    1320      518      517 1
    1321      519      518 1
    1322      520      519 1
    1323      522      521 1
    1324     1451      521 1
    1325     1452      521 1
    1326      523      522 1
    1327     1453      522 1
    1328     1454      522 1
    1329      524      523 1
    1330     1455      523 1
    1331     1456      523 1
    1332      525      524 1
    1333     1457      524 1
    1334     1458      524 1
    1335      526      525 1
    1336     1459      525 1
    1337     1460      525 1
    1338      527      526 1
    1339     1461      526 1
    1340     1462      526 1
    1341      528      527 1
    1342     1463      527 1
    1343     1464      527 1
    1344      529      528 1
    1345     1465      528 1
    1346     1466      528 1
    1347      530      529 1
    1348     1467      529 1
    1349     1468      529 1
    1350      531      530 1
    1351     1469      530 1
    1352     1470      530 1
    1353      532      531 1
    1354     1471      531 1
    1355     1472      531 1
    1356      533      532 1
    1357      537      532 1
    1358     1473      532 1
    1359      534      533 1
    1360     1474      533 1
    1361     1475      533 1
    1362      535      534 1
    1363     1476      534 1
    1364     1477      534 1
    1365      536      535 1
    1366     1478      535 1
    1367     1479      535 1
    1368     1480      536 1
    1369     1481      536 1
    1370     1482      536 1
    1371      538      537 1
    1372     1483      537 1
    1373     1484      537 1
    1374      539      538 1
    1375     1485      538 1
    1376     1486      538 1
    1377      540      539 1
    1378     1487      539 1
    1379     1488      539 1
    1380      541      540 1
    1381     1489      540 1
    1382     1490      540 1
    1383      542      541 1
    1384     1491      541 1
    1385     1492      541 1
    1386     1493      542 1
    1387     1494      542 1
    1388     1495      542 1
    1389      544      543 1
    1390     1496      543 1
    1391     1497      543 1
    1392      545      544 1
    1393     1498      544 1
    1394     1499      544 1
    1395      546      545 1
    1396     1500      545 1
    1397     1501      545 1
    1398      547      546 1
    1399     1502      546 1
    1400     1503      546 1
    1401      548      547 1
    1402     1504      547 1
    1403     1505      547 1
    1404      549      548 1
    1405     1506      548 1
    1406     1507      548 1
    1407      550      549 1
    1408     1508      549 1
    1409     1509      549 1
    1410      551      550 1
    1411     1510      550 1
    1412     1511      550 1
    1413      552      551 1
    1414     1512      551 1
    1415     1513      551 1
    1416      553      552 1
    1417     1514      552 1
    1418     1515      552 1
    1419      554      553 1
    1420     1516      553 1
    1421     1517      553 1
    1422      555      554 1
    1423      559      554 1
    1424     1518      554 1
    1425      556      555 1
    1426     1519      555 1
    1427     1520      555 1
    1428      557      556 1
    1429     1521      556 1
    1430     1522      556 1
    1431      558      557 1
    1432     1523      557 1
    1433     1524      557 1
    1434     1525      558 1
    1435     1526      558 1
    1436     1527      558 1
    1437      560      559 1
    1438     1528      559 1
    1439     1529      559 1
    1440      561      560 1
    1441     1530      560 1
    1442     1531      560 1
    1443      562      561 1
    1444     1532      561 1
    1445     1533      561 1
    1446      563      562 1
    1447     1534      562 1
    1448     1535      562 1
    1449      564      563 1
    1450     1536      563 1
    1451     1537      563 1
    1452     1538      564 1
    1453     1539      564 1
    1454     1540      564 1
    1455      566      565 1
    1456     1541      565 1
    1457     1542      565 1
    1458      567      566 1
    1459     1543      566 1
    1460     1544      566 1
    1461      568      567 1
    1462     1545      567 1
    1463     1546      567 1
    1464      569      568 1
    1465     1547      568 1
    1466     1548      568 1
    1467      570      569 1
    1468     1549      569 1
    1469     1550      569 1
    1470      571      570 1
    1471     1551      570 1
    1472     1552      570 1
    1473      572      571 1
    1474     1553      571 1
    1475     1554      571 1
    1476      573      572 1
    1477     1555      572 1
    1478     1556      572 1
    1479      574      573 1
    1480     1557      573 1
    1481     1558      573 1
    1482      575      574 1
    1483     1559      574 1
    1484     1560      574 1
    1485      576      575 1
    1486     1561      575 1
    1487     1562      575 1
    1488      577      576 1
    1489      581      576 1
    1490     1563      576 1
    1491      578      577 1
    1492     1564      577 1
    1493     1565      577 1
    1494      579      578 1
    1495     1566      578 1
    1496     1567      578 1
    1497      580      579 1
    1498     1568      579 1
    1499     1569      579 1
    1500     1570      580 1
    1501     1571      580 1
    1502     1572      580 1
    1503      582      581 1
    1504     1573      581 1
    1505     1574      581 1
    1506      583      582 1
    1507     1575      582 1
    1508     1576      582 1
    1509      584      583 1
    1510     1577      583 1
    1511     1578      583 1
    1512      585      584 1
    1513     1579      584 1
    1514     1580      584 1
    1515      586      585 1
    1516     1581      585 1
    1517     1582      585 1
    1518     1583      586 1
    1519     1584      586 1
    1520     1585      586 1
    1521      588      587 1
    1522     1586      587 1
    1523     1587      587 1
    1524      589      588 1
    1525     1588      588 1
    1526     1589      588 1
    1527      590      589 1
    1528     1590      589 1
    1529     1591      589 1
    1530      591      590 1
    1531     1592      590 1
    1532     1593      590 1
    1533      592      591 1
    1534     1594      591 1
    1535     1595      591 1
    1536      593      592 1
    1537     1596      592 1
    1538     1597      592 1
    1539      594      593 1
    1540     1598      593 1
    1541     1599      593 1
    1542      595      594 1
    1543     1600      594 1
    1544     1601      594 1
    1545      596      595 1
    1546     1602      595 1
    1547     1603      595 1
    1548      597      596 1
    1549     1604      596 1
    1550     1605      596 1
    1551      598      597 1
    1552     1606      597 1
    1553     1607      597 1
    1554      599      598 1
    1555      603      598 1
    1556     1608      598 1
    1557      600      599 1
    1558     1609      599 1
    1559     1610      599 1
    1560      601      600 1
    1561     1611      600 1
    1562     1612      600 1
    1563      602      601 1
    1564     1613      601 1
    1565     1614      601 1
    1566     1615      602 1
    1567     1616      602 1
    1568     1617      602 1
    1569      604      603 1
    1570     1618      603 1
    1571     1619      603 1
    1572      605      604 1
    1573     1620      604 1
    1574     1621      604 1
    1575      606      605 1
    1576     1622      605 1
    1577     1623      605 1
    1578      607      606 1
    1579     1624      606 1
    1580     1625      606 1
    1581      608      607 1
    1582     1626      607 1
    1583     1627      607 1
    1584     1628      608 1
    1585     1629      608 1
    1586     1630      608 1
    1587      610      609 1
    1588     1631      609 1
    1589     1632      609 1
    1590      611      610 1
    1591     1633      610 1
    1592     1634      610 1
    1593      612      611 1
    1594     1635      611 1
    1595     1636      611 1
    1596      613      612 1
    1597     1637      612 1
    1598     1638      612 1
    1599      614      613 1
    1600     1639      613 1
    1601     1640      613 1
    1602      615      614 1
    1603     1641      614 1
    1604     1642      614 1
    1605      616      615 1
    1606     1643      615 1
    1607     1644      615 1
    1608      617      616 1
    1609     1645      616 1
    1610     1646      616 1
    1611      618      617 1
    1612     1647      617 1
    1613     1648      617 1
    1614      619      618 1
    1615     1649      618 1
    1616     1650      618 1
    1617      620      619 1
    1618     1651      619 1
    1619     1652      619 1
    1620      621      620 1
    1621      625      620 1
    1622     1653      620 1
    1623      622      621 1
    1624     1654      621 1
    1625     1655      621 1
    1626      623      622 1
    1627     1656      622 1
    1628     1657      622 1
    1629      624      623 1
    1630     1658      623 1
    1631     1659      623 1
    1632     1660      624 1
    1633     1661      624 1
    1634     1662      624 1
    1635      626      625 1
    1636     1663      625 1
    1637     1664      625 1
    1638      627      626 1
    1639     1665      626 1
    1640     1666      626 1
    1641      628      627 1
    1642     1667      627 1
    1643     1668      627 1
    1644      629      628 1
    1645     1669      628 1
    1646     1670      628 1
    1647      630      629 1
    1648     1671      629 1
    1649     1672      629 1
    1650     1673      630 1
    1651     1674      630 1
    1652     1675      630 1
    1653      632      631 1
    1654     1676      631 1
    1655     1677      631 1
    1656      633      632 1
    1657     1678      632 1
    1658     1679      632 1
    1659      634      633 1
    1660     1680      633 1
    1661     1681      633 1
    1662      635      634 1
    1663     1682      634 1
    1664     1683      634 1
    1665      636      635 1
    1666     1684      635 1
    1667     1685      635 1
    1668      637      636 1
    1669     1686      636 1
    1670     1687      636 1
    1671      638      637 1
    1672     1688      637 1
    1673     1689      637 1
    1674      639      638 1
    1675     1690      638 1
    1676     1691      638 1
    1677      640      639 1
    1678     1692      639 1
    1679     1693      639 1
    1680      641      640 1
    1681     1694      640 1
    1682     1695      640 1
    1683      642      641 1
    1684     1696      641 1
    1685     1697      641 1
    1686      643      642 1
    1687      647      642 1
    1688     1698      642 1
    1689      644      643 1
    1690     1699      643 1
    1691     1700      643 1
    1692      645      644 1
    1693     1701      644 1
    1694     1702      644 1
    1695      646      645 1
    1696     1703      645 1
    1697     1704      645 1
    1698     1705      646 1
    1699     1706      646 1
    1700     1707      646 1
    1701      648      647 1
    1702     1708      647 1
    1703     1709      647 1
    1704      649      648 1
    1705     1710      648 1
    1706     1711      648 1
    1707      650      649 1
    1708     1712      649 1
    1709     1713      649 1
    1710      651      650 1
    1711     1714      650 1
    1712     1715      650 1
    1713      652      651 1
    1714     1716      651 1
    1715     1717      651 1
    1716     1718      652 1
    1717     1719      652 1
    1718     1720      652 1
    1719      654      653 1
    1720     1721      653 1
    1721     1722      653 1
    1722      655      654 1
    1723     1723      654 1
    1724     1724      654 1
    1725      656      655 1
    1726     1725      655 1
    1727     1726      655 1
    1728      657      656 1
    1729     1727      656 1
    1730     1728      656 1
    1731      658      657 1
    1732     1729      657 1
    1733     1730      657 1
    1734      659      658 1
    1735     1731      658 1
    1736     1732      658 1
    1737      660      659 1
    1738     1733      659 1
    1739     1734      659 1
    1740      661      660 1
    1741     1735      660 1
    1742     1736      660 1
    1743      662      661 1
    1744     1737      661 1
    1745     1738      661 1
    1746      663      662 1
    1747     1739      662 1
    1748     1740      662 1
    1749      664      663 1
    1750     1741      663 1
    1751     1742      663 1
    1752      665      664 1
    1753      669      664 1
    1754     1743      664 1
    1755      666      665 1
    1756     1744      665 1
    1757     1745      665 1
    1758      667      666 1
    1759     1746      666 1
    1760     1747      666 1
    1761      668      667 1
    1762     1748      667 1
    1763     1749      667 1
    1764     1750      668 1
    1765     1751      668 1
    1766     1752      668 1
    1767      670      669 1
    1768     1753      669 1
    1769     1754      669 1
    1770      671      670 1
    1771     1755      670 1
    1772     1756      670 1
    1773      672      671 1
    1774     1757      671 1
    1775     1758      671 1
    1776      673      672 1
    1777     1759      672 1
    1778     1760      672 1
    1779      674      673 1
    1780     1761      673 1
    1781     1762      673 1
    1782     1763      674 1
    1783     1764      674 1
    1784     1765      674 1
    1785      676      675 1
    1786     1766      675 1
    1787     1767      675 1
    1788      677      676 1
    1789     1768      676 1
    1790     1769      676 1
    1791      678      677 1
    1792     1770      677 1
    1793     1771      677 1
    1794      679      678 1
    1795     1772      678 1
    1796     1773      678 1
    1797      680      679 1
    1798     1774      679 1
    1799     1775      679 1
    1800      681      680 1
    1801     1776      680 1
    1802     1777      680 1
    1803      682      681 1
    1804     1778      681 1
    1805     1779      681 1
    1806      683      682 1
    1807     1780      682 1
    1808     1781      682 1
    1809      684      683 1
    1810     1782      683 1
    1811     1783      683 1
    1812      685      684 1
    1813     1784      684 1
    1814     1785      684 1
    1815      686      685 1
    1816     1786      685 1
    1817     1787      685 1
    1818      687      686 1
    1819      691      686 1
    1820     1788      686 1
    1821      688      687 1
    1822     1789      687 1
    1823     1790      687 1
    1824      689      688 1
    1825     1791      688 1
    1826     1792      688 1
    1827      690      689 1
    1828     1793      689 1
    1829     1794      689 1
    1830     1795      690 1
    1831     1796      690 1
    1832     1797      690 1
    1833      692      691 1
    1834     1798      691 1
    1835     1799      691 1
    1836      693      692 1
    1837     1800      692 1
    1838     1801      692 1
    1839      694      693 1
    1840     1802      693 1
    1841     1803      693 1
    1842      695      694 1
    1843     1804      694 1
    1844     1805      694 1
    1845      696      695 1
    1846     1806      695 1
    1847     1807      695 1
    1848     1808      696 1
    1849     1809      696 1
    1850     1810      696 1
@<TRIPOS>SUBSTRUCTURE
       1 UNL             1 RESIDUE    0 **** ROOT      0
