@<TRIPOS>MOLECULE
Compound
604 617 1 0 1
SMALL
NO_CHARGES
@<TRIPOS>CRYSIN
   31.3090    37.2010    24.5169    90.0000    90.0000    90.0000  1  1
@<TRIPOS>ATOM
       1 C            1.4482    -1.1857     1.8091 C             1 Compound
       2 C            2.4586    -0.4519     0.9233 C             1 Compound
       3 C            1.8087     0.4286     0.2170 C             1 Compound
       4 C            0.4214     0.1255     0.1854 C             1 Compound
       5 C           -0.5976     0.8553    -0.3816 C             1 Compound
       6 C           -1.8804     0.3581    -0.1907 C             1 Compound
       7 C           -2.0990    -0.8902     0.3987 C             1 Compound
       8 C           -1.0513    -1.6475     0.9633 C             1 Compound
       9 C            0.2272    -1.0521     0.8957 C             1 Compound
      10 C           -3.5227    -1.0673     0.4313 C             1 Compound
      11 C           -4.1532     0.0631     0.0062 C             1 Compound
      12 C           -3.1568     1.1551    -0.3622 C             1 Compound
      13 C           -5.5436    -0.0301     0.0507 C             1 Compound
      14 C           -5.9584    -1.2802     0.5204 C             1 Compound
      15 S           -4.6084    -2.2495     0.8972 S             1 Compound
      16 S            2.6854     1.7092    -0.5565 S             1 Compound
      17 C            4.2051     0.8046    -0.2207 C             1 Compound
      18 C            3.8980    -0.3506     0.7194 C             1 Compound
      19 H           -0.4035     1.8180    -0.8344 H             1 Compound
      20 H           -1.2507    -2.5292     1.5573 H             1 Compound
      21 H           -6.2249     0.7566    -0.2390 H             1 Compound
      22 H           -6.9900    -1.5793     0.6377 H             1 Compound
      23 H            4.6354    -1.0178     1.1451 H             1 Compound
      24 C            5.4346     1.4032    -2.2463 C             1 Compound
      25 N            6.2184     2.2503    -1.5391 N             1 Compound
      26 S            7.1150     2.9548    -2.7162 S             1 Compound
      27 N            6.5456     2.2764    -4.1112 N             1 Compound
      28 C            5.5854     1.4336    -3.6577 C             1 Compound
      29 C            4.7994     0.5926    -4.4663 C             1 Compound
      30 C            3.8728    -0.2725    -3.8318 C             1 Compound
      31 F            3.0956    -1.1121    -4.5646 F             1 Compound
      32 C            3.7372    -0.2966    -2.4491 C             1 Compound
      33 C            4.5220     0.5502    -1.6454 C             1 Compound
      34 H            2.9859    -0.9356    -2.0113 H             1 Compound
      35 C           12.2320     1.9913    -7.6562 C             1 Compound
      36 C           13.4294     1.4626    -6.8210 C             1 Compound
      37 C           13.0299     0.4871    -6.0455 C             1 Compound
      38 C           11.5958     0.4700    -5.9928 C             1 Compound
      39 C           10.7696    -0.4622    -5.3903 C             1 Compound
      40 C            9.4156    -0.3127    -5.6248 C             1 Compound
      41 C            8.8986     0.8280    -6.2383 C             1 Compound
      42 C            9.7262     1.8353    -6.7690 C             1 Compound
      43 C           11.1139     1.5682    -6.7073 C             1 Compound
      44 C            7.4683     0.6257    -6.3076 C             1 Compound
      45 C            7.1701    -0.5544    -5.8521 C             1 Compound
      46 C            8.3553    -1.3486    -5.3955 C             1 Compound
      47 C            5.7599    -0.8684    -5.8852 C             1 Compound
      48 C            4.9892     0.3907    -5.9448 C             1 Compound
      49 S            6.0774     1.5823    -6.8708 S             1 Compound
      50 S           14.2153    -0.4271    -5.0992 S             1 Compound
      51 C           15.4208     0.9017    -5.4490 C             1 Compound
      52 C           14.8210     1.8246    -6.5119 C             1 Compound
      53 H           11.1561    -1.3218    -4.8690 H             1 Compound
      54 H            9.3118     2.6391    -7.3635 H             1 Compound
      55 H            5.3667    -1.7921    -5.4952 H             1 Compound
      56 H           15.3299     2.6885    -6.9179 H             1 Compound
      57 C           17.3875     1.6145    -2.2262 C             1 Compound
      58 N           18.6542     1.3497    -1.8242 N             1 Compound
      59 S           19.3190     0.6797    -3.1811 S             1 Compound
      60 N           18.0750     0.6809    -4.2721 N             1 Compound
      61 C           17.0665     1.2630    -3.5568 C             1 Compound
      62 C           15.7762     1.4623    -4.0809 C             1 Compound
      63 C           14.8010     2.0434    -3.2262 C             1 Compound
      64 F           13.5314     2.2308    -3.6424 F             1 Compound
      65 C           15.1324     2.3806    -1.8937 C             1 Compound
      66 C           16.4205     2.1638    -1.3899 C             1 Compound
      67 H           14.3727     2.7916    -1.2401 H             1 Compound
      68 H           16.6538     2.4046    -0.3585 H             1 Compound
      69 C            1.1061    -0.1164     2.9529 C             1 Compound
      70 C           -0.3942     0.1024     3.3142 C             1 Compound
      71 C           -0.6888     0.8729     4.5895 C             1 Compound
      72 C           -0.0237     2.2394     4.8051 C             1 Compound
      73 C           -0.2047     3.3402     3.7641 C             1 Compound
      74 C            0.6560     3.2188     2.5227 C             1 Compound
      75 C            0.6893     4.5187     1.7291 C             1 Compound
      76 C            1.6406     4.3134     0.5694 C             1 Compound
      77 C            2.1054     5.5552    -0.1265 C             1 Compound
      78 C            1.0029     6.3059    -0.8760 C             1 Compound
      79 C            1.4263     7.7255    -1.2685 C             1 Compound
      80 C            2.3144     7.9138    -2.5082 C             1 Compound
      81 C            2.7794     9.4103    -2.6199 C             1 Compound
      82 C            1.7719    10.5566    -2.5691 C             1 Compound
      83 C            2.4679    11.8893    -2.9006 C             1 Compound
      84 C            1.4580    13.0227    -3.0311 C             1 Compound
      85 C            3.5119     6.9460    -2.5605 C             1 Compound
      86 C            3.2670     5.6280    -3.3597 C             1 Compound
      87 C            4.5502     4.7756    -3.4554 C             1 Compound
      88 C            5.6350     5.3700    -4.3922 C             1 Compound
      89 C            5.5717     4.9687    -5.8777 C             1 Compound
      90 C            4.1915     4.8879    -6.5206 C             1 Compound
      91 H            1.5093     0.8661     2.7117 H             1 Compound
      92 H            1.6593    -0.3338     3.8157 H             1 Compound
      93 H           -0.8928     0.6329     2.4866 H             1 Compound
      94 H           -0.9084    -0.8738     3.4358 H             1 Compound
      95 H           -1.7925     1.0046     4.6292 H             1 Compound
      96 H           -0.3969     0.2311     5.4497 H             1 Compound
      97 H            1.0482     2.1395     4.9684 H             1 Compound
      98 H           -0.4620     2.6146     5.7537 H             1 Compound
      99 H           -1.2363     3.3966     3.4488 H             1 Compound
     100 H            0.1076     4.2775     4.2745 H             1 Compound
     101 H            0.2898     2.4126     1.8627 H             1 Compound
     102 H            1.6984     3.0200     2.8515 H             1 Compound
     103 H            1.0695     5.3209     2.3925 H             1 Compound
     104 H           -0.3133     4.7912     1.3503 H             1 Compound
     105 H            1.1418     3.6584    -0.1677 H             1 Compound
     106 H            2.5787     3.8691     0.9766 H             1 Compound
     107 H            2.5580     6.2077     0.6289 H             1 Compound
     108 H            2.9040     5.1950    -0.7832 H             1 Compound
     109 H            0.5824     5.7305    -1.7266 H             1 Compound
     110 H            0.2014     6.4436    -0.1490 H             1 Compound
     111 H            0.5086     8.2909    -1.4698 H             1 Compound
     112 H            1.9044     8.1939    -0.3878 H             1 Compound
     113 H            1.7647     7.6780    -3.4259 H             1 Compound
     114 H            3.2347     9.4916    -3.6112 H             1 Compound
     115 H            3.4909     9.6810    -1.8362 H             1 Compound
     116 H            1.2950    10.6154    -1.5689 H             1 Compound
     117 H            1.0183    10.4089    -3.3338 H             1 Compound
     118 H            3.2179    12.1386    -2.1193 H             1 Compound
     119 H            2.9973    11.8008    -3.8761 H             1 Compound
     120 H            1.9866    13.9607    -3.3028 H             1 Compound
     121 H            0.9172    13.1725    -2.0748 H             1 Compound
     122 H            0.7283    12.7874    -3.8368 H             1 Compound
     123 H            4.3176     7.4588    -3.0365 H             1 Compound
     124 H            3.9217     6.7746    -1.5595 H             1 Compound
     125 H            2.8830     5.8517    -4.3716 H             1 Compound
     126 H            2.4869     5.0234    -2.8656 H             1 Compound
     127 H            4.9454     4.7094    -2.4202 H             1 Compound
     128 H            4.3117     3.7474    -3.7863 H             1 Compound
     129 H            5.6640     6.4321    -4.2656 H             1 Compound
     130 H            6.6530     5.0921    -4.0714 H             1 Compound
     131 H            6.2338     5.6413    -6.4648 H             1 Compound
     132 H            6.0122     3.9712    -5.9523 H             1 Compound
     133 H            3.5749     4.1211    -6.0030 H             1 Compound
     134 H            3.6809     5.8688    -6.5104 H             1 Compound
     135 H            4.3052     4.5534    -7.5745 H             1 Compound
     136 C            1.8766    -2.5469     2.4863 C             1 Compound
     137 C            1.5271    -2.6979     4.0307 C             1 Compound
     138 C            2.6219    -2.3176     5.1310 C             1 Compound
     139 C            3.5795    -1.0540     5.0863 C             1 Compound
     140 C            3.1964     0.4013     5.5933 C             1 Compound
     141 C            3.9182     1.4815     4.6875 C             1 Compound
     142 C            3.8478     3.0458     4.9407 C             1 Compound
     143 C            4.6652     3.7711     3.8006 C             1 Compound
     144 C            4.9790     5.3180     3.7675 C             1 Compound
     145 C            3.8080     6.2910     3.4905 C             1 Compound
     146 C            4.1793     7.8041     3.2110 C             1 Compound
     147 C            4.4232     8.3470     1.7300 C             1 Compound
     148 C            4.3412     9.9189     1.6900 C             1 Compound
     149 C            2.8989    10.4767     1.8076 C             1 Compound
     150 C            2.8285    11.9543     1.3667 C             1 Compound
     151 C            1.3868    12.4561     1.2759 C             1 Compound
     152 C            5.6765     7.8031     0.9241 C             1 Compound
     153 C            5.8018     8.4602    -0.5159 C             1 Compound
     154 C            6.5607     7.7088    -1.6425 C             1 Compound
     155 C            6.8211     8.4900    -3.0045 C             1 Compound
     156 C            5.8375     9.2269    -4.0107 C             1 Compound
     157 C            5.0584     8.5759    -5.1984 C             1 Compound
     158 H            1.3859    -3.3500     1.8953 H             1 Compound
     159 H            2.9692    -2.7222     2.3865 H             1 Compound
     160 H            0.5409    -2.2593     4.2534 H             1 Compound
     161 H            1.3291    -3.7672     4.2138 H             1 Compound
     162 H            2.1635    -2.4165     6.1402 H             1 Compound
     163 H            3.3378    -3.1621     5.0379 H             1 Compound
     164 H            3.9695    -1.0157     4.0505 H             1 Compound
     165 H            4.4562    -1.3124     5.7221 H             1 Compound
     166 H            2.1092     0.5201     5.6203 H             1 Compound
     167 H            3.4853     0.5126     6.6615 H             1 Compound
     168 H            3.5498     1.3140     3.6553 H             1 Compound
     169 H            4.9951     1.2161     4.7061 H             1 Compound
     170 H            4.2914     3.2692     5.9341 H             1 Compound
     171 H            2.8084     3.4261     4.9385 H             1 Compound
     172 H            4.1959     3.5129     2.8282 H             1 Compound
     173 H            5.6680     3.2953     3.8232 H             1 Compound
     174 H            5.4953     5.6188     4.7056 H             1 Compound
     175 H            5.6928     5.4590     2.9307 H             1 Compound
     176 H            3.1884     5.9279     2.6638 H             1 Compound
     177 H            3.1836     6.2524     4.4118 H             1 Compound
     178 H            3.2584     8.3373     3.5272 H             1 Compound
     179 H            4.9754     8.1440     3.9081 H             1 Compound
     180 H            3.5669     8.0182     1.1252 H             1 Compound
     181 H            4.6333    10.2671     0.6894 H             1 Compound
     182 H            5.0416    10.3938     2.4100 H             1 Compound
     183 H            2.4919    10.3558     2.8323 H             1 Compound
     184 H            2.2522     9.9126     1.1035 H             1 Compound
     185 H            3.4095    12.5924     2.0654 H             1 Compound
     186 H            3.2666    12.0581     0.3492 H             1 Compound
     187 H            1.3810    13.5077     0.9154 H             1 Compound
     188 H            0.8914    12.4114     2.2668 H             1 Compound
     189 H            0.8082    11.8438     0.5498 H             1 Compound
     190 H            6.6260     7.9635     1.4783 H             1 Compound
     191 H            5.5162     6.7107     0.8099 H             1 Compound
     192 H            6.2514     9.4707    -0.4164 H             1 Compound
     193 H            4.7968     8.5582    -0.8727 H             1 Compound
     194 H            7.5564     7.5269    -1.2155 H             1 Compound
     195 H            6.1191     6.7143    -1.8222 H             1 Compound
     196 H            7.4134     9.3365    -2.6357 H             1 Compound
     197 H            7.4845     7.8476    -3.6209 H             1 Compound
     198 H            5.2509     9.9685    -3.4513 H             1 Compound
     199 H            6.4743     9.8377    -4.6399 H             1 Compound
     200 H            5.7374     7.9861    -5.8492 H             1 Compound
     201 H            4.1714     7.9593    -4.9827 H             1 Compound
     202 H            4.6446     9.3868    -5.8379 H             1 Compound
     203 C           -3.2739     1.7572    -1.8030 C             1 Compound
     204 C           -4.1357     0.9321    -2.7768 C             1 Compound
     205 C           -4.0625     1.4232    -4.2300 C             1 Compound
     206 C           -2.7999     1.0347    -5.0378 C             1 Compound
     207 C           -2.6211    -0.4915    -5.2248 C             1 Compound
     208 C           -1.7325    -1.1511    -4.1532 C             1 Compound
     209 C           -1.7516    -2.6837    -4.2803 C             1 Compound
     210 C           -0.7577    -3.3073    -3.2891 C             1 Compound
     211 C           -0.7269    -4.8461    -3.2942 C             1 Compound
     212 C           -2.0366    -5.4773    -2.7637 C             1 Compound
     213 C           -1.9927    -7.0173    -2.6019 C             1 Compound
     214 C           -1.4296    -7.5752    -1.2516 C             1 Compound
     215 C           -1.4824    -9.1320    -1.2245 C             1 Compound
     216 C           -2.8920    -9.7297    -1.3688 C             1 Compound
     217 C           -2.8569   -11.2481    -1.1375 C             1 Compound
     218 C           -4.2494   -11.8606    -1.2459 C             1 Compound
     219 C           -0.0011    -7.0563    -0.9348 C             1 Compound
     220 C            0.6199    -7.6428     0.3446 C             1 Compound
     221 C            1.9344    -6.9416     0.7119 C             1 Compound
     222 C            2.6508    -7.6186     1.8981 C             1 Compound
     223 C            1.8226    -7.7379     3.1909 C             1 Compound
     224 C            1.4009    -6.3867     3.7485 C             1 Compound
     225 H           -3.7594     2.7550    -1.7500 H             1 Compound
     226 H           -2.2605     1.9408    -2.2177 H             1 Compound
     227 H           -3.9362    -0.1492    -2.7366 H             1 Compound
     228 H           -5.1849     1.0589    -2.4377 H             1 Compound
     229 H           -4.9273     0.9777    -4.7701 H             1 Compound
     230 H           -4.2002     2.5271    -4.2553 H             1 Compound
     231 H           -1.8655     1.5089    -4.6679 H             1 Compound
     232 H           -2.9910     1.4544    -6.0518 H             1 Compound
     233 H           -3.6228    -0.9699    -5.2991 H             1 Compound
     234 H           -2.1005    -0.6741    -6.1911 H             1 Compound
     235 H           -2.0401    -0.8982    -3.1254 H             1 Compound
     236 H           -0.6974    -0.7654    -4.2840 H             1 Compound
     237 H           -1.4725    -2.9886    -5.3128 H             1 Compound
     238 H           -2.7839    -3.0348    -4.0699 H             1 Compound
     239 H           -0.9785    -2.9607    -2.2554 H             1 Compound
     240 H            0.2580    -2.9449    -3.5637 H             1 Compound
     241 H           -0.5110    -5.2256    -4.3170 H             1 Compound
     242 H            0.1334    -5.1227    -2.6700 H             1 Compound
     243 H           -2.3626    -5.0228    -1.8032 H             1 Compound
     244 H           -2.8114    -5.2499    -3.5271 H             1 Compound
     245 H           -3.0537    -7.3401    -2.6359 H             1 Compound
     246 H           -1.4800    -7.4673    -3.4800 H             1 Compound
     247 H           -2.0863    -7.2110    -0.4294 H             1 Compound
     248 H           -1.1288    -9.4746    -0.2319 H             1 Compound
     249 H           -0.8117    -9.5524    -2.0056 H             1 Compound
     250 H           -3.2973    -9.5283    -2.3820 H             1 Compound
     251 H           -3.5605    -9.2698    -0.6079 H             1 Compound
     252 H           -2.1895   -11.7283    -1.8856 H             1 Compound
     253 H           -2.4600   -11.4604    -0.1198 H             1 Compound
     254 H           -4.1888   -12.9538    -1.0589 H             1 Compound
     255 H           -4.6658   -11.6938    -2.2615 H             1 Compound
     256 H           -4.9287   -11.4095    -0.4912 H             1 Compound
     257 H            0.6831    -7.2674    -1.7860 H             1 Compound
     258 H           -0.0828    -5.9642    -0.7630 H             1 Compound
     259 H            0.8413    -8.7193     0.1909 H             1 Compound
     260 H           -0.1027    -7.5206     1.1790 H             1 Compound
     261 H            2.6263    -6.9779    -0.1580 H             1 Compound
     262 H            1.7335    -5.8721     0.9374 H             1 Compound
     263 H            2.9437    -8.6460     1.5917 H             1 Compound
     264 H            3.5831    -7.0519     2.1133 H             1 Compound
     265 H            0.9229    -8.3654     3.0217 H             1 Compound
     266 H            2.4449    -8.2491     3.9565 H             1 Compound
     267 H            2.3057    -5.7776     3.9532 H             1 Compound
     268 H            0.7370    -5.8531     3.0364 H             1 Compound
     269 H            0.8411    -6.5305     4.6965 H             1 Compound
     270 C           -3.0935     2.2217     0.8010 C             1 Compound
     271 C           -4.3564     3.0808     1.0129 C             1 Compound
     272 C           -4.8893     3.1187     2.4741 C             1 Compound
     273 C           -4.0702     3.6973     3.6593 C             1 Compound
     274 C           -3.8013     5.2210     3.6403 C             1 Compound
     275 C           -2.6787     5.6632     2.7005 C             1 Compound
     276 C           -2.6619     7.1735     2.4762 C             1 Compound
     277 C           -1.6184     7.4978     1.4001 C             1 Compound
     278 C           -1.6017     8.9446     0.9083 C             1 Compound
     279 C           -2.9798     9.3996     0.3848 C             1 Compound
     280 C           -2.9168    10.7698    -0.3023 C             1 Compound
     281 C           -2.8264    10.8032    -1.8689 C             1 Compound
     282 C           -2.4944    12.2550    -2.3102 C             1 Compound
     283 C           -3.5387    13.2817    -1.8488 C             1 Compound
     284 C           -3.1752    14.6898    -2.3208 C             1 Compound
     285 C           -4.2542    15.6842    -1.9054 C             1 Compound
     286 C           -1.8222     9.7845    -2.4606 C             1 Compound
     287 C           -1.6057     9.8466    -4.0099 C             1 Compound
     288 C           -0.6508     8.7224    -4.4723 C             1 Compound
     289 C            0.3213     9.1024    -5.6241 C             1 Compound
     290 C           -0.2209     8.9790    -7.0443 C             1 Compound
     291 C           -0.3575     7.5157    -7.4646 C             1 Compound
     292 H           -2.2075     2.8908     0.7185 H             1 Compound
     293 H           -2.9331     1.6425     1.7402 H             1 Compound
     294 H           -4.2342     4.0790     0.5504 H             1 Compound
     295 H           -5.1814     2.6232     0.4414 H             1 Compound
     296 H           -5.8555     3.6633     2.4538 H             1 Compound
     297 H           -5.1153     2.0634     2.7503 H             1 Compound
     298 H           -3.1805     3.0910     3.8611 H             1 Compound
     299 H           -4.7162     3.5325     4.5479 H             1 Compound
     300 H           -4.7553     5.7175     3.3699 H             1 Compound
     301 H           -3.5131     5.5622     4.6608 H             1 Compound
     302 H           -2.8070     5.1759     1.7227 H             1 Compound
     303 H           -1.6996     5.3914     3.1179 H             1 Compound
     304 H           -2.4439     7.7213     3.4193 H             1 Compound
     305 H           -3.6681     7.4527     2.1091 H             1 Compound
     306 H           -1.8424     6.8688     0.5120 H             1 Compound
     307 H           -0.6062     7.2414     1.7898 H             1 Compound
     308 H           -1.2676     9.6242     1.7237 H             1 Compound
     309 H           -0.8474     9.0039     0.1065 H             1 Compound
     310 H           -3.4710     8.6588    -0.2799 H             1 Compound
     311 H           -3.6057     9.5100     1.2957 H             1 Compound
     312 H           -3.8737    11.2727    -0.0544 H             1 Compound
     313 H           -2.1037    11.3627     0.1762 H             1 Compound
     314 H           -3.8159    10.5108    -2.2835 H             1 Compound
     315 H           -2.4652    12.3139    -3.4156 H             1 Compound
     316 H           -1.4933    12.5373    -1.9133 H             1 Compound
     317 H           -3.6026    13.3121    -0.7416 H             1 Compound
     318 H           -4.5275    12.9899    -2.2650 H             1 Compound
     319 H           -2.2039    14.9926    -1.8702 H             1 Compound
     320 H           -3.0775    14.7052    -3.4275 H             1 Compound
     321 H           -3.9750    16.7023    -2.2460 H             1 Compound
     322 H           -4.3680    15.6932    -0.8000 H             1 Compound
     323 H           -5.2254    15.4051    -2.3678 H             1 Compound
     324 H           -0.8514     9.9714    -1.9725 H             1 Compound
     325 H           -2.1566     8.7587    -2.1961 H             1 Compound
     326 H           -1.1169    10.8203    -4.2136 H             1 Compound
     327 H           -2.5490     9.7953    -4.5908 H             1 Compound
     328 H           -0.0096     8.5810    -3.6173 H             1 Compound
     329 H           -1.1473     7.7380    -4.5911 H             1 Compound
     330 H            0.6806    10.1423    -5.4747 H             1 Compound
     331 H            1.2277     8.4570    -5.5684 H             1 Compound
     332 H           -1.1762     9.5313    -7.1502 H             1 Compound
     333 H            0.5286     9.4368    -7.7302 H             1 Compound
     334 H            0.6284     7.0036    -7.3811 H             1 Compound
     335 H           -1.0940     6.9839    -6.8311 H             1 Compound
     336 H           -0.6800     7.4618    -8.5247 H             1 Compound
     337 C           11.9794     0.9932    -8.8616 C             1 Compound
     338 C           10.5104     0.8949    -9.3982 C             1 Compound
     339 C           10.1977     0.1905   -10.7231 C             1 Compound
     340 C           10.7790    -1.2019   -11.0375 C             1 Compound
     341 C           10.6268    -2.3919   -10.0859 C             1 Compound
     342 C           11.4535    -2.2180    -8.8419 C             1 Compound
     343 C           11.6296    -3.4401    -7.9903 C             1 Compound
     344 C           12.6672    -3.0588    -6.9348 C             1 Compound
     345 C           13.0585    -4.1659    -6.0176 C             1 Compound
     346 C           11.9093    -4.7159    -5.1536 C             1 Compound
     347 C           12.3211    -6.0079    -4.4413 C             1 Compound
     348 C           13.1637    -5.8856    -3.1438 C             1 Compound
     349 C           13.7578    -7.2752    -2.7293 C             1 Compound
     350 C           13.2246    -8.5649    -3.4397 C             1 Compound
     351 C           13.5524    -9.8359    -2.6394 C             1 Compound
     352 C           12.6898   -11.0203    -3.0731 C             1 Compound
     353 C           14.2148    -4.7409    -3.2382 C             1 Compound
     354 C           15.2052    -4.4655    -2.1098 C             1 Compound
     355 C           16.0374    -3.1999    -2.4108 C             1 Compound
     356 C           17.2957    -3.0855    -1.5275 C             1 Compound
     357 C           17.0379    -2.9852    -0.0174 C             1 Compound
     358 C           16.3148    -1.6997     0.3743 C             1 Compound
     359 H           12.3142     0.0286    -8.5306 H             1 Compound
     360 H           12.6714     1.1297    -9.6551 H             1 Compound
     361 H            9.9011     0.3496    -8.6615 H             1 Compound
     362 H           10.1001     1.9226    -9.5036 H             1 Compound
     363 H            9.0873     0.1299   -10.7877 H             1 Compound
     364 H           10.5317     0.8601   -11.5430 H             1 Compound
     365 H           11.8482    -1.0995   -11.1775 H             1 Compound
     366 H           10.3401    -1.4976   -12.0128 H             1 Compound
     367 H            9.6025    -2.5926    -9.8269 H             1 Compound
     368 H           11.0349    -3.2724   -10.6260 H             1 Compound
     369 H           10.9864    -1.4644    -8.1876 H             1 Compound
     370 H           12.4715    -1.9442    -9.1854 H             1 Compound
     371 H           11.9601    -4.2833    -8.6148 H             1 Compound
     372 H           10.6822    -3.7283    -7.5335 H             1 Compound
     373 H           12.3225    -2.2198    -6.3396 H             1 Compound
     374 H           13.5983    -2.7252    -7.4270 H             1 Compound
     375 H           13.4676    -4.9696    -6.6272 H             1 Compound
     376 H           13.8850    -3.7287    -5.4518 H             1 Compound
     377 H           11.4804    -3.9624    -4.4591 H             1 Compound
     378 H           11.1170    -5.0242    -5.8476 H             1 Compound
     379 H           11.3869    -6.5433    -4.1641 H             1 Compound
     380 H           12.8438    -6.6278    -5.1940 H             1 Compound
     381 H           12.4422    -5.5730    -2.3544 H             1 Compound
     382 H           13.5980    -7.3497    -1.6333 H             1 Compound
     383 H           14.8375    -7.2731    -2.8900 H             1 Compound
     384 H           13.5985    -8.6588    -4.4786 H             1 Compound
     385 H           12.1477    -8.5315    -3.5757 H             1 Compound
     386 H           14.6233   -10.0887    -2.7514 H             1 Compound
     387 H           13.3306    -9.6703    -1.5636 H             1 Compound
     388 H           12.9591   -11.9158    -2.4753 H             1 Compound
     389 H           12.8240   -11.2495    -4.1445 H             1 Compound
     390 H           11.6177   -10.7938    -2.8862 H             1 Compound
     391 H           14.8448    -4.9596    -4.1205 H             1 Compound
     392 H           13.6396    -3.7966    -3.3486 H             1 Compound
     393 H           15.9202    -5.2846    -2.1186 H             1 Compound
     394 H           14.6921    -4.3706    -1.1298 H             1 Compound
     395 H           16.4097    -3.2562    -3.4581 H             1 Compound
     396 H           15.4010    -2.2927    -2.3354 H             1 Compound
     397 H           17.9241    -3.9853    -1.7099 H             1 Compound
     398 H           17.8841    -2.1990    -1.8524 H             1 Compound
     399 H           16.4669    -3.8689     0.3373 H             1 Compound
     400 H           18.0230    -2.9922     0.4983 H             1 Compound
     401 H           16.9083    -0.8159     0.0553 H             1 Compound
     402 H           15.3071    -1.6537    -0.0853 H             1 Compound
     403 H           16.1994    -1.6678     1.4783 H             1 Compound
     404 C           12.4001     3.4150    -8.2687 C             1 Compound
     405 C           13.4801     3.4876    -9.4375 C             1 Compound
     406 C           13.0650     3.0243   -10.9039 C             1 Compound
     407 C           14.0451     2.1075   -11.7716 C             1 Compound
     408 C           13.9631     0.5170   -11.9175 C             1 Compound
     409 C           14.6176    -0.4540   -10.8482 C             1 Compound
     410 C           14.6049    -2.0341   -11.1196 C             1 Compound
     411 C           15.4130    -2.7840    -9.9879 C             1 Compound
     412 C           15.6689    -4.3531    -9.9042 C             1 Compound
     413 C           14.4788    -5.2814    -9.5292 C             1 Compound
     414 C           14.7678    -6.7968    -9.1578 C             1 Compound
     415 C           14.9357    -7.2742    -7.6396 C             1 Compound
     416 C           14.7868    -8.8346    -7.5162 C             1 Compound
     417 C           13.3256    -9.3417    -7.6465 C             1 Compound
     418 C           13.2036   -10.8137    -7.1998 C             1 Compound
     419 C           11.7444   -11.2603    -7.0844 C             1 Compound
     420 C           16.1995    -6.7317    -6.8564 C             1 Compound
     421 C           16.3792    -7.3455    -5.4047 C             1 Compound
     422 C           17.3648    -6.6223    -4.4410 C             1 Compound
     423 C           17.9500    -7.4653    -3.2440 C             1 Compound
     424 C           17.1897    -8.1801    -2.0739 C             1 Compound
     425 C           16.6989    -7.3986    -0.8335 C             1 Compound
     426 H           11.4345     3.7990    -8.6647 H             1 Compound
     427 H           12.7067     4.0870    -7.4395 H             1 Compound
     428 H           14.4348     3.0187    -9.1343 H             1 Compound
     429 H           13.7161     4.5723    -9.5359 H             1 Compound
     430 H           12.0028     2.7132   -10.9903 H             1 Compound
     431 H           13.0169     3.9874   -11.4638 H             1 Compound
     432 H           15.0928     2.4416   -11.6485 H             1 Compound
     433 H           13.7556     2.4106   -12.8061 H             1 Compound
     434 H           12.9171     0.2887   -12.1576 H             1 Compound
     435 H           14.5123     0.2793   -12.8554 H             1 Compound
     436 H           14.1715    -0.3027    -9.8582 H             1 Compound
     437 H           15.6784    -0.1445   -10.7764 H             1 Compound
     438 H           15.0705    -2.2457   -12.1062 H             1 Compound
     439 H           13.5719    -2.4317   -11.1582 H             1 Compound
     440 H           14.9824    -2.4790    -9.0230 H             1 Compound
     441 H           16.4272    -2.3397   -10.0422 H             1 Compound
     442 H           16.1385    -4.7155   -10.8444 H             1 Compound
     443 H           16.4044    -4.4859    -9.0854 H             1 Compound
     444 H           13.9460    -4.8524    -8.6899 H             1 Compound
     445 H           13.8077    -5.2642   -10.4180 H             1 Compound
     446 H           13.8314    -7.3054    -9.4707 H             1 Compound
     447 H           15.5622    -7.2145    -9.8128 H             1 Compound
     448 H           14.0757    -6.8996    -7.0709 H             1 Compound
     449 H           15.0296    -9.1340    -6.4850 H             1 Compound
     450 H           15.4873    -9.3735    -8.1882 H             1 Compound
     451 H           12.9316    -9.2229    -8.6762 H             1 Compound
     452 H           12.6929    -8.7411    -6.9548 H             1 Compound
     453 H           13.7502   -11.4759    -7.9032 H             1 Compound
     454 H           13.6598   -10.9316    -6.1951 H             1 Compound
     455 H           11.7016   -12.3117    -6.7249 H             1 Compound
     456 H           11.2328   -11.1950    -8.0662 H             1 Compound
     457 H           11.2044   -10.6282    -6.3453 H             1 Compound
     458 H           17.1281    -6.9381    -7.4286 H             1 Compound
     459 H           16.0732    -5.6311    -6.7764 H             1 Compound
     460 H           16.7505    -8.3842    -5.5243 H             1 Compound
     461 H           15.3990    -7.3678    -4.9181 H             1 Compound
     462 H           18.2575    -6.3701    -5.0511 H             1 Compound
     463 H           16.9456    -5.6606    -4.1034 H             1 Compound
     464 H           18.4758    -8.3023    -3.7551 H             1 Compound
     465 H           18.7346    -6.8435    -2.7602 H             1 Compound
     466 H           16.4014    -8.8529    -2.4547 H             1 Compound
     467 H           17.9609    -8.8444    -1.6259 H             1 Compound
     468 H           17.4714    -6.6939    -0.4613 H             1 Compound
     469 H           15.7401    -6.8874    -0.9402 H             1 Compound
     470 H           16.4747    -8.1187    -0.0168 H             1 Compound
     471 C            8.3492    -1.7705    -3.8724 C             1 Compound
     472 C            7.9110    -0.6353    -2.9259 C             1 Compound
     473 C            7.9688    -0.9287    -1.4015 C             1 Compound
     474 C            9.1949    -0.4636    -0.5574 C             1 Compound
     475 C            9.2439     1.0504    -0.1544 C             1 Compound
     476 C            9.9091     2.0185    -1.1567 C             1 Compound
     477 C            9.8069     3.5115    -0.7096 C             1 Compound
     478 C           10.2957     4.4578    -1.8340 C             1 Compound
     479 C           10.1560     5.9787    -1.5396 C             1 Compound
     480 C           10.3837     6.7782    -2.8521 C             1 Compound
     481 C           10.3523     8.3438    -2.8050 C             1 Compound
     482 C           10.3823     8.9869    -4.2502 C             1 Compound
     483 C           10.3298    10.5652    -4.2806 C             1 Compound
     484 C            8.9535    11.1420    -3.9345 C             1 Compound
     485 C            8.6935    12.5821    -4.4186 C             1 Compound
     486 C            7.2056    12.9514    -4.2828 C             1 Compound
     487 C           11.6046     8.4579    -5.0505 C             1 Compound
     488 C           11.6912     8.9352    -6.5122 C             1 Compound
     489 C           12.8253     8.2058    -7.2422 C             1 Compound
     490 C           13.1029     8.7807    -8.6415 C             1 Compound
     491 C           11.9357     8.6988    -9.6399 C             1 Compound
     492 C           11.5310     7.2640    -9.9718 C             1 Compound
     493 H            9.3566    -2.1337    -3.6047 H             1 Compound
     494 H            7.6508    -2.6223    -3.7096 H             1 Compound
     495 H            8.4054     0.3283    -3.1491 H             1 Compound
     496 H            6.8583    -0.5781    -3.1606 H             1 Compound
     497 H            7.0922    -0.4430    -0.9227 H             1 Compound
     498 H            7.8058    -2.0214    -1.2722 H             1 Compound
     499 H           10.1644    -0.8360    -0.9459 H             1 Compound
     500 H            9.0242    -0.9774     0.4159 H             1 Compound
     501 H            8.2121     1.3827     0.0962 H             1 Compound
     502 H            9.8400     1.1373     0.7805 H             1 Compound
     503 H            9.4313     1.9072    -2.1350 H             1 Compound
     504 H           10.9765     1.7416    -1.2850 H             1 Compound
     505 H           10.3809     3.6768     0.2275 H             1 Compound
     506 H            8.7416     3.7554    -0.5017 H             1 Compound
     507 H            9.6778     4.2309    -2.7280 H             1 Compound
     508 H           11.3554     4.2333    -2.0806 H             1 Compound
     509 H            9.1359     6.1658    -1.1725 H             1 Compound
     510 H           10.8735     6.2820    -0.7475 H             1 Compound
     511 H            9.5997     6.4472    -3.5687 H             1 Compound
     512 H           11.3782     6.4639    -3.2232 H             1 Compound
     513 H            9.4393     8.6711    -2.2831 H             1 Compound
     514 H           11.2115     8.7081    -2.2043 H             1 Compound
     515 H            9.4877     8.6191    -4.8031 H             1 Compound
     516 H           10.4490    10.8787    -5.3321 H             1 Compound
     517 H           11.1399    11.0363    -3.6893 H             1 Compound
     518 H            8.7312    11.0469    -2.8516 H             1 Compound
     519 H            8.2915    10.5414    -4.5391 H             1 Compound
     520 H            9.3159    13.3071    -3.8589 H             1 Compound
     521 H            8.9376    12.6580    -5.5027 H             1 Compound
     522 H            7.0239    13.9728    -4.6797 H             1 Compound
     523 H            6.8797    12.9171    -3.2213 H             1 Compound
     524 H            6.5702    12.2517    -4.8700 H             1 Compound
     525 H           12.5420     8.7228    -4.5175 H             1 Compound
     526 H           11.5203     7.3570    -5.1224 H             1 Compound
     527 H           11.9142    10.0192    -6.5468 H             1 Compound
     528 H           10.7264     8.7342    -7.0290 H             1 Compound
     529 H           13.7577     8.3311    -6.6502 H             1 Compound
     530 H           12.6028     7.1183    -7.2976 H             1 Compound
     531 H           13.3841     9.8502    -8.5250 H             1 Compound
     532 H           13.9785     8.2471    -9.0701 H             1 Compound
     533 H           11.0561     9.2597    -9.2600 H             1 Compound
     534 H           12.2631     9.1889   -10.5824 H             1 Compound
     535 H           12.3995     6.7060   -10.3818 H             1 Compound
     536 H           11.1449     6.7402    -9.0738 H             1 Compound
     537 H           10.7274     7.2790   -10.7381 H             1 Compound
     538 C            8.5574    -2.5536    -6.3758 C             1 Compound
     539 C            7.3164    -3.4442    -6.7118 C             1 Compound
     540 C            6.4094    -3.0531    -7.9529 C             1 Compound
     541 C            6.8838    -3.1824    -9.4299 C             1 Compound
     542 C            7.2758    -4.6070    -9.8895 C             1 Compound
     543 C            8.6053    -5.1075    -9.2885 C             1 Compound
     544 C            8.4625    -6.5029    -8.6663 C             1 Compound
     545 C            9.5330    -6.7466    -7.5857 C             1 Compound
     546 C            9.3821    -8.0768    -6.8267 C             1 Compound
     547 C            7.9603    -8.3109    -6.2544 C             1 Compound
     548 C            7.8389    -9.6538    -5.5170 C             1 Compound
     549 C            7.9547    -9.6809    -3.9572 C             1 Compound
     550 C            8.1080   -11.1664    -3.5106 C             1 Compound
     551 C            6.9715   -12.0963    -3.9758 C             1 Compound
     552 C            7.2309   -13.5376    -3.5238 C             1 Compound
     553 C            6.0938   -14.4612    -3.9505 C             1 Compound
     554 C            9.0951    -8.7889    -3.3869 C             1 Compound
     555 C            9.2495    -8.8531    -1.8337 C             1 Compound
     556 C           10.3308    -7.8827    -1.3119 C             1 Compound
     557 C           10.9667    -8.2874     0.0329 C             1 Compound
     558 C           10.1668    -7.9302     1.2820 C             1 Compound
     559 C           10.1438    -6.4181     1.5131 C             1 Compound
     560 H            9.3317    -3.1835    -5.8907 H             1 Compound
     561 H            8.9512    -2.2032    -7.3500 H             1 Compound
     562 H            7.6277    -4.4849    -6.8584 H             1 Compound
     563 H            6.7074    -3.5154    -5.7927 H             1 Compound
     564 H            5.5048    -3.6898    -7.8762 H             1 Compound
     565 H            6.0759    -2.0112    -7.9030 H             1 Compound
     566 H            7.6288    -2.4179    -9.6676 H             1 Compound
     567 H            6.0086    -2.8947   -10.0551 H             1 Compound
     568 H            6.4210    -5.2563    -9.6030 H             1 Compound
     569 H            7.3558    -4.6681   -10.9968 H             1 Compound
     570 H            8.8885    -4.4086    -8.5021 H             1 Compound
     571 H            9.4502    -5.0478   -10.0075 H             1 Compound
     572 H            8.4552    -7.2840    -9.4567 H             1 Compound
     573 H            7.4894    -6.5147    -8.1389 H             1 Compound
     574 H            9.4285    -5.9415    -6.8367 H             1 Compound
     575 H           10.5507    -6.6900    -8.0327 H             1 Compound
     576 H           10.1361    -8.0897    -6.0124 H             1 Compound
     577 H            9.6186    -8.9055    -7.5293 H             1 Compound
     578 H            7.5750    -7.4724    -5.6367 H             1 Compound
     579 H            7.3037    -8.4063    -7.1447 H             1 Compound
     580 H            6.8119   -10.0229    -5.7282 H             1 Compound
     581 H            8.5397   -10.3729    -5.9969 H             1 Compound
     582 H            7.0123    -9.2643    -3.5368 H             1 Compound
     583 H            8.1240   -11.2295    -2.4050 H             1 Compound
     584 H            9.0756   -11.5539    -3.9023 H             1 Compound
     585 H            6.8982   -12.1106    -5.0833 H             1 Compound
     586 H            6.0101   -11.7321    -3.5527 H             1 Compound
     587 H            8.1784   -13.9009    -3.9801 H             1 Compound
     588 H            7.3294   -13.5762    -2.4177 H             1 Compound
     589 H            6.3159   -15.4987    -3.6240 H             1 Compound
     590 H            5.9796   -14.4526    -5.0557 H             1 Compound
     591 H            5.1406   -14.1355    -3.4823 H             1 Compound
     592 H           10.0460    -9.1053    -3.8553 H             1 Compound
     593 H            8.8952    -7.7344    -3.6737 H             1 Compound
     594 H            9.5804    -9.8811    -1.5869 H             1 Compound
     595 H            8.2912    -8.6462    -1.3119 H             1 Compound
     596 H           11.1614    -7.9620    -1.9790 H             1 Compound
     597 H           10.0159    -6.8204    -1.3677 H             1 Compound
     598 H           11.1735    -9.3807     0.0116 H             1 Compound
     599 H           11.9572    -7.7877     0.1282 H             1 Compound
     600 H            9.1407    -8.3484     1.2276 H             1 Compound
     601 H           10.6888    -8.3854     2.1528 H             1 Compound
     602 H           11.1848    -6.0276     1.5777 H             1 Compound
     603 H            9.6147    -5.8932     0.6934 H             1 Compound
     604 H            9.6324    -6.1949     2.4711 H             1 Compound
@<TRIPOS>BOND
       1        2        1 1
       2        9        1 1
       3       69        1 1
       4      136        1 1
       5        3        2 1
       6       18        2 1
       7        4        3 1
       8       16        3 1
       9        5        4 1
      10        9        4 1
      11        6        5 1
      12       19        5 1
      13        7        6 1
      14       12        6 1
      15        8        7 1
      16       10        7 1
      17        9        8 1
      18       20        8 1
      19       11       10 1
      20       15       10 1
      21       12       11 1
      22       13       11 1
      23      203       12 1
      24      270       12 1
      25       14       13 1
      26       21       13 1
      27       15       14 1
      28       22       14 1
      29       17       16 1
      30       18       17 1
      31       33       17 1
      32       23       18 1
      33       25       24 1
      34       28       24 1
      35       33       24 1
      36       26       25 1
      37       27       26 1
      38       28       27 1
      39       29       28 1
      40       30       29 1
      41       48       29 1
      42       31       30 1
      43       32       30 1
      44       33       32 1
      45       34       32 1
      46       36       35 1
      47       43       35 1
      48      337       35 1
      49      404       35 1
      50       37       36 1
      51       52       36 1
      52       38       37 1
      53       50       37 1
      54       39       38 1
      55       43       38 1
      56       40       39 1
      57       53       39 1
      58       41       40 1
      59       46       40 1
      60       42       41 1
      61       44       41 1
      62       43       42 1
      63       54       42 1
      64       45       44 1
      65       49       44 1
      66       46       45 1
      67       47       45 1
      68      471       46 1
      69      538       46 1
      70       48       47 1
      71       55       47 1
      72       49       48 1
      73       51       50 1
      74       52       51 1
      75       62       51 1
      76       56       52 1
      77       58       57 1
      78       61       57 1
      79       66       57 1
      80       59       58 1
      81       60       59 1
      82       61       60 1
      83       62       61 1
      84       63       62 1
      85       64       63 1
      86       65       63 1
      87       66       65 1
      88       67       65 1
      89       68       66 1
      90       70       69 1
      91       91       69 1
      92       92       69 1
      93       71       70 1
      94       93       70 1
      95       94       70 1
      96       72       71 1
      97       95       71 1
      98       96       71 1
      99       73       72 1
     100       97       72 1
     101       98       72 1
     102       74       73 1
     103       99       73 1
     104      100       73 1
     105       75       74 1
     106      101       74 1
     107      102       74 1
     108       76       75 1
     109      103       75 1
     110      104       75 1
     111       77       76 1
     112      105       76 1
     113      106       76 1
     114       78       77 1
     115      107       77 1
     116      108       77 1
     117       79       78 1
     118      109       78 1
     119      110       78 1
     120       80       79 1
     121      111       79 1
     122      112       79 1
     123       81       80 1
     124       85       80 1
     125      113       80 1
     126       82       81 1
     127      114       81 1
     128      115       81 1
     129       83       82 1
     130      116       82 1
     131      117       82 1
     132       84       83 1
     133      118       83 1
     134      119       83 1
     135      120       84 1
     136      121       84 1
     137      122       84 1
     138       86       85 1
     139      123       85 1
     140      124       85 1
     141       87       86 1
     142      125       86 1
     143      126       86 1
     144       88       87 1
     145      127       87 1
     146      128       87 1
     147       89       88 1
     148      129       88 1
     149      130       88 1
     150       90       89 1
     151      131       89 1
     152      132       89 1
     153      133       90 1
     154      134       90 1
     155      135       90 1
     156      137      136 1
     157      158      136 1
     158      159      136 1
     159      138      137 1
     160      160      137 1
     161      161      137 1
     162      139      138 1
     163      162      138 1
     164      163      138 1
     165      140      139 1
     166      164      139 1
     167      165      139 1
     168      141      140 1
     169      166      140 1
     170      167      140 1
     171      142      141 1
     172      168      141 1
     173      169      141 1
     174      143      142 1
     175      170      142 1
     176      171      142 1
     177      144      143 1
     178      172      143 1
     179      173      143 1
     180      145      144 1
     181      174      144 1
     182      175      144 1
     183      146      145 1
     184      176      145 1
     185      177      145 1
     186      147      146 1
     187      178      146 1
     188      179      146 1
     189      148      147 1
     190      152      147 1
     191      180      147 1
     192      149      148 1
     193      181      148 1
     194      182      148 1
     195      150      149 1
     196      183      149 1
     197      184      149 1
     198      151      150 1
     199      185      150 1
     200      186      150 1
     201      187      151 1
     202      188      151 1
     203      189      151 1
     204      153      152 1
     205      190      152 1
     206      191      152 1
     207      154      153 1
     208      192      153 1
     209      193      153 1
     210      155      154 1
     211      194      154 1
     212      195      154 1
     213      156      155 1
     214      196      155 1
     215      197      155 1
     216      157      156 1
     217      198      156 1
     218      199      156 1
     219      200      157 1
     220      201      157 1
     221      202      157 1
     222      204      203 1
     223      225      203 1
     224      226      203 1
     225      205      204 1
     226      227      204 1
     227      228      204 1
     228      206      205 1
     229      229      205 1
     230      230      205 1
     231      207      206 1
     232      231      206 1
     233      232      206 1
     234      208      207 1
     235      233      207 1
     236      234      207 1
     237      209      208 1
     238      235      208 1
     239      236      208 1
     240      210      209 1
     241      237      209 1
     242      238      209 1
     243      211      210 1
     244      239      210 1
     245      240      210 1
     246      212      211 1
     247      241      211 1
     248      242      211 1
     249      213      212 1
     250      243      212 1
     251      244      212 1
     252      214      213 1
     253      245      213 1
     254      246      213 1
     255      215      214 1
     256      219      214 1
     257      247      214 1
     258      216      215 1
     259      248      215 1
     260      249      215 1
     261      217      216 1
     262      250      216 1
     263      251      216 1
     264      218      217 1
     265      252      217 1
     266      253      217 1
     267      254      218 1
     268      255      218 1
     269      256      218 1
     270      220      219 1
     271      257      219 1
     272      258      219 1
     273      221      220 1
     274      259      220 1
     275      260      220 1
     276      222      221 1
     277      261      221 1
     278      262      221 1
     279      223      222 1
     280      263      222 1
     281      264      222 1
     282      224      223 1
     283      265      223 1
     284      266      223 1
     285      267      224 1
     286      268      224 1
     287      269      224 1
     288      271      270 1
     289      292      270 1
     290      293      270 1
     291      272      271 1
     292      294      271 1
     293      295      271 1
     294      273      272 1
     295      296      272 1
     296      297      272 1
     297      274      273 1
     298      298      273 1
     299      299      273 1
     300      275      274 1
     301      300      274 1
     302      301      274 1
     303      276      275 1
     304      302      275 1
     305      303      275 1
     306      277      276 1
     307      304      276 1
     308      305      276 1
     309      278      277 1
     310      306      277 1
     311      307      277 1
     312      279      278 1
     313      308      278 1
     314      309      278 1
     315      280      279 1
     316      310      279 1
     317      311      279 1
     318      281      280 1
     319      312      280 1
     320      313      280 1
     321      282      281 1
     322      286      281 1
     323      314      281 1
     324      283      282 1
     325      315      282 1
     326      316      282 1
     327      284      283 1
     328      317      283 1
     329      318      283 1
     330      285      284 1
     331      319      284 1
     332      320      284 1
     333      321      285 1
     334      322      285 1
     335      323      285 1
     336      287      286 1
     337      324      286 1
     338      325      286 1
     339      288      287 1
     340      326      287 1
     341      327      287 1
     342      289      288 1
     343      328      288 1
     344      329      288 1
     345      290      289 1
     346      330      289 1
     347      331      289 1
     348      291      290 1
     349      332      290 1
     350      333      290 1
     351      334      291 1
     352      335      291 1
     353      336      291 1
     354      338      337 1
     355      359      337 1
     356      360      337 1
     357      339      338 1
     358      361      338 1
     359      362      338 1
     360      340      339 1
     361      363      339 1
     362      364      339 1
     363      341      340 1
     364      365      340 1
     365      366      340 1
     366      342      341 1
     367      367      341 1
     368      368      341 1
     369      343      342 1
     370      369      342 1
     371      370      342 1
     372      344      343 1
     373      371      343 1
     374      372      343 1
     375      345      344 1
     376      373      344 1
     377      374      344 1
     378      346      345 1
     379      375      345 1
     380      376      345 1
     381      347      346 1
     382      377      346 1
     383      378      346 1
     384      348      347 1
     385      379      347 1
     386      380      347 1
     387      349      348 1
     388      353      348 1
     389      381      348 1
     390      350      349 1
     391      382      349 1
     392      383      349 1
     393      351      350 1
     394      384      350 1
     395      385      350 1
     396      352      351 1
     397      386      351 1
     398      387      351 1
     399      388      352 1
     400      389      352 1
     401      390      352 1
     402      354      353 1
     403      391      353 1
     404      392      353 1
     405      355      354 1
     406      393      354 1
     407      394      354 1
     408      356      355 1
     409      395      355 1
     410      396      355 1
     411      357      356 1
     412      397      356 1
     413      398      356 1
     414      358      357 1
     415      399      357 1
     416      400      357 1
     417      401      358 1
     418      402      358 1
     419      403      358 1
     420      405      404 1
     421      426      404 1
     422      427      404 1
     423      406      405 1
     424      428      405 1
     425      429      405 1
     426      407      406 1
     427      430      406 1
     428      431      406 1
     429      408      407 1
     430      432      407 1
     431      433      407 1
     432      409      408 1
     433      434      408 1
     434      435      408 1
     435      410      409 1
     436      436      409 1
     437      437      409 1
     438      411      410 1
     439      438      410 1
     440      439      410 1
     441      412      411 1
     442      440      411 1
     443      441      411 1
     444      413      412 1
     445      442      412 1
     446      443      412 1
     447      414      413 1
     448      444      413 1
     449      445      413 1
     450      415      414 1
     451      446      414 1
     452      447      414 1
     453      416      415 1
     454      420      415 1
     455      448      415 1
     456      417      416 1
     457      449      416 1
     458      450      416 1
     459      418      417 1
     460      451      417 1
     461      452      417 1
     462      419      418 1
     463      453      418 1
     464      454      418 1
     465      455      419 1
     466      456      419 1
     467      457      419 1
     468      421      420 1
     469      458      420 1
     470      459      420 1
     471      422      421 1
     472      460      421 1
     473      461      421 1
     474      423      422 1
     475      462      422 1
     476      463      422 1
     477      424      423 1
     478      464      423 1
     479      465      423 1
     480      425      424 1
     481      466      424 1
     482      467      424 1
     483      468      425 1
     484      469      425 1
     485      470      425 1
     486      472      471 1
     487      493      471 1
     488      494      471 1
     489      473      472 1
     490      495      472 1
     491      496      472 1
     492      474      473 1
     493      497      473 1
     494      498      473 1
     495      475      474 1
     496      499      474 1
     497      500      474 1
     498      476      475 1
     499      501      475 1
     500      502      475 1
     501      477      476 1
     502      503      476 1
     503      504      476 1
     504      478      477 1
     505      505      477 1
     506      506      477 1
     507      479      478 1
     508      507      478 1
     509      508      478 1
     510      480      479 1
     511      509      479 1
     512      510      479 1
     513      481      480 1
     514      511      480 1
     515      512      480 1
     516      482      481 1
     517      513      481 1
     518      514      481 1
     519      483      482 1
     520      487      482 1
     521      515      482 1
     522      484      483 1
     523      516      483 1
     524      517      483 1
     525      485      484 1
     526      518      484 1
     527      519      484 1
     528      486      485 1
     529      520      485 1
     530      521      485 1
     531      522      486 1
     532      523      486 1
     533      524      486 1
     534      488      487 1
     535      525      487 1
     536      526      487 1
     537      489      488 1
     538      527      488 1
     539      528      488 1
     540      490      489 1
     541      529      489 1
     542      530      489 1
     543      491      490 1
     544      531      490 1
     545      532      490 1
     546      492      491 1
     547      533      491 1
     548      534      491 1
     549      535      492 1
     550      536      492 1
     551      537      492 1
     552      539      538 1
     553      560      538 1
     554      561      538 1
     555      540      539 1
     556      562      539 1
     557      563      539 1
     558      541      540 1
     559      564      540 1
     560      565      540 1
     561      542      541 1
     562      566      541 1
     563      567      541 1
     564      543      542 1
     565      568      542 1
     566      569      542 1
     567      544      543 1
     568      570      543 1
     569      571      543 1
     570      545      544 1
     571      572      544 1
     572      573      544 1
     573      546      545 1
     574      574      545 1
     575      575      545 1
     576      547      546 1
     577      576      546 1
     578      577      546 1
     579      548      547 1
     580      578      547 1
     581      579      547 1
     582      549      548 1
     583      580      548 1
     584      581      548 1
     585      550      549 1
     586      554      549 1
     587      582      549 1
     588      551      550 1
     589      583      550 1
     590      584      550 1
     591      552      551 1
     592      585      551 1
     593      586      551 1
     594      553      552 1
     595      587      552 1
     596      588      552 1
     597      589      553 1
     598      590      553 1
     599      591      553 1
     600      555      554 1
     601      592      554 1
     602      593      554 1
     603      556      555 1
     604      594      555 1
     605      595      555 1
     606      557      556 1
     607      596      556 1
     608      597      556 1
     609      558      557 1
     610      598      557 1
     611      599      557 1
     612      559      558 1
     613      600      558 1
     614      601      558 1
     615      602      559 1
     616      603      559 1
     617      604      559 1
@<TRIPOS>SUBSTRUCTURE
       1 Compound        1 RESIDUE    0 **** ROOT      0
