@<TRIPOS>MOLECULE
Polymer
876 891 1 0 1
SMALL
NO_CHARGES
@<TRIPOS>CRYSIN
   41.2415    39.2270    31.0049    90.0000    90.0000    90.0000  1  1
@<TRIPOS>ATOM
       1 C            7.1932     0.5525    15.6236 C             1 Polymer 
       2 C            6.2787     0.0860    14.4709 C             1 Polymer 
       3 C            6.3305    -1.3832    14.1561 C             1 Polymer 
       4 C            7.9077    -1.4627    14.4079 C             1 Polymer 
       5 C            9.1163    -2.3208    14.6154 C             1 Polymer 
       6 C           10.4142    -1.6421    14.8805 C             1 Polymer 
       7 C           10.4302    -0.3280    14.3452 C             1 Polymer 
       8 C            9.2786     0.3874    14.1634 C             1 Polymer 
       9 C            8.1765    -0.1747    14.7272 C             1 Polymer 
      10 C           11.7795     0.2673    14.1959 C             1 Polymer 
      11 C           12.5351    -0.9767    14.4259 C             1 Polymer 
      12 C           11.9120    -1.8142    15.5028 C             1 Polymer 
      13 C           13.4091    -1.3379    13.4606 C             1 Polymer 
      14 C           13.4331    -0.4245    12.4195 C             1 Polymer 
      15 S           12.1802     0.8544    12.5194 S             1 Polymer 
      16 S            5.4906    -1.2859    12.3952 S             1 Polymer 
      17 C            5.0558     0.5750    12.3083 C             1 Polymer 
      18 C            5.7574     0.9816    13.5765 C             1 Polymer 
      19 H            9.0006    -3.3890    14.7009 H             1 Polymer 
      20 H            9.3007     1.4165    13.9377 H             1 Polymer 
      21 H           13.9368    -2.3018    13.4209 H             1 Polymer 
      22 H            6.1041     1.9545    13.7163 H             1 Polymer 
      23 C           -0.4555     2.1642    12.1836 C             1 Polymer 
      24 C           -0.6167     3.4177    11.0902 C             1 Polymer 
      25 C            0.6691     3.9647    10.6959 C             1 Polymer 
      26 S            0.5189     5.5197     9.6933 S             1 Polymer 
      27 C           -1.3984     5.5352     9.7853 C             1 Polymer 
      28 C           -1.7121     4.0886    10.5577 C             1 Polymer 
      29 C            1.6939     3.2000    11.0918 C             1 Polymer 
      30 C            1.2072     2.1084    11.9031 C             1 Polymer 
      31 C            2.2224     1.1477    12.1592 C             1 Polymer 
      32 C            3.6596     1.3655    11.6663 C             1 Polymer 
      33 S            3.5433     3.1015    10.8608 S             1 Polymer 
      34 H           -2.7163     3.9289    10.7919 H             1 Polymer 
      35 H            2.1083     0.2109    12.6584 H             1 Polymer 
      36 C           -1.6773     2.6780    13.2121 C             1 Polymer 
      37 C           -2.3277     2.3762    14.7161 C             1 Polymer 
      38 C           -3.1243     1.2400    15.6934 C             1 Polymer 
      39 C           -3.0981    -0.1774    16.6369 C             1 Polymer 
      40 C           -2.6045    -0.6540    18.1889 C             1 Polymer 
      41 C           -1.1462    -1.1927    18.7321 C             1 Polymer 
      42 C           -0.8493    -1.5081    20.3091 C             1 Polymer 
      43 C            0.7002    -1.8269    20.7307 C             1 Polymer 
      44 C            1.1459    -2.4140    22.2038 C             1 Polymer 
      45 C            2.1751    -1.7702    23.3878 C             1 Polymer 
      46 C            2.7777    -2.3803    24.9070 C             1 Polymer 
      47 C            3.9912    -3.2298    25.7048 C             1 Polymer 
      48 C            3.7447    -3.4980    27.2441 C             1 Polymer 
      49 C            2.9977    -2.4686    28.1647 C             1 Polymer 
      50 C            3.4540    -2.5966    29.6514 C             1 Polymer 
      51 C            2.8579    -1.6273    30.6619 C             1 Polymer 
      52 C            4.7532    -4.5531    25.1731 C             1 Polymer 
      53 C            6.3514    -4.6895    25.0771 C             1 Polymer 
      54 C            6.8412    -5.5501    23.8471 C             1 Polymer 
      55 C            8.3654    -5.5932    23.5099 C             1 Polymer 
      56 C            9.0060    -4.2981    22.9692 C             1 Polymer 
      57 C            8.5590    -3.8843    21.5599 C             1 Polymer 
      58 H           -2.5748     2.5141    12.5770 H             1 Polymer 
      59 H           -1.5697     3.7885    13.2616 H             1 Polymer 
      60 H           -1.6381     2.9105    15.2979 H             1 Polymer 
      61 H           -3.1626     3.1142    14.6465 H             1 Polymer 
      62 H           -3.5730     1.9314    16.4409 H             1 Polymer 
      63 H           -3.9597     0.9904    14.9980 H             1 Polymer 
      64 H           -2.9659    -1.0439    15.9642 H             1 Polymer 
      65 H           -4.1960    -0.2279    16.8291 H             1 Polymer 
      66 H           -2.9434     0.1356    18.8937 H             1 Polymer 
      67 H           -3.2633    -1.5194    18.4204 H             1 Polymer 
      68 H           -0.4136    -0.4531    18.5524 H             1 Polymer 
      69 H           -0.8624    -2.0826    18.1320 H             1 Polymer 
      70 H           -1.4862    -2.3715    20.6012 H             1 Polymer 
      71 H           -1.1640    -0.6300    20.8993 H             1 Polymer 
      72 H            1.3939    -1.0206    20.4233 H             1 Polymer 
      73 H            0.9263    -2.6614    20.0231 H             1 Polymer 
      74 H            0.2036    -2.7443    22.6417 H             1 Polymer 
      75 H            1.6063    -3.3540    21.8995 H             1 Polymer 
      76 H            3.0047    -1.3120    22.8475 H             1 Polymer 
      77 H            1.5755    -0.9163    23.7167 H             1 Polymer 
      78 H            3.0075    -1.4333    25.3635 H             1 Polymer 
      79 H            1.9320    -2.6608    25.5276 H             1 Polymer 
      80 H            4.8028    -2.4960    25.6616 H             1 Polymer 
      81 H            4.7661    -3.6453    27.6187 H             1 Polymer 
      82 H            3.2444    -4.4782    27.3986 H             1 Polymer 
      83 H            1.9060    -2.6426    28.0784 H             1 Polymer 
      84 H            3.1953    -1.4303    27.8573 H             1 Polymer 
      85 H            3.3546    -3.6391    30.0233 H             1 Polymer 
      86 H            4.4859    -2.2868    29.7082 H             1 Polymer 
      87 H            3.4027    -1.7569    31.6307 H             1 Polymer 
      88 H            1.7865    -1.8255    30.8333 H             1 Polymer 
      89 H            3.0269    -0.5780    30.3361 H             1 Polymer 
      90 H            4.2392    -5.5161    25.3705 H             1 Polymer 
      91 H            4.2392    -5.5161    25.3705 H             1 Polymer 
      92 H            6.7640    -5.1493    26.0049 H             1 Polymer 
      93 H            6.8085    -3.6845    24.9896 H             1 Polymer 
      94 H            6.5099    -6.5964    24.0185 H             1 Polymer 
      95 H            6.3786    -5.2453    22.9016 H             1 Polymer 
      96 H            8.9284    -5.9130    24.4088 H             1 Polymer 
      97 H            8.5319    -6.3563    22.7150 H             1 Polymer 
      98 H            8.8572    -3.4769    23.6920 H             1 Polymer 
      99 H           10.0994    -4.4701    22.8750 H             1 Polymer 
     100 H            8.8428    -4.6194    20.7836 H             1 Polymer 
     101 H            7.4833    -3.7149    21.4461 H             1 Polymer 
     102 H            9.0685    -2.9369    21.3368 H             1 Polymer 
     103 C           -0.7520     0.6346    12.2566 C             1 Polymer 
     104 C           -1.3059    -0.0348    13.5715 C             1 Polymer 
     105 C           -0.4914    -0.0551    15.0020 C             1 Polymer 
     106 C            0.0128     0.8251    16.3128 C             1 Polymer 
     107 C           -0.7507     1.7617    17.4388 C             1 Polymer 
     108 C            0.0085     2.1132    18.7725 C             1 Polymer 
     109 C           -0.5244     3.4008    19.5121 C             1 Polymer 
     110 C            0.5040     3.9641    20.5576 C             1 Polymer 
     111 C            0.6402     5.5169    20.7611 C             1 Polymer 
     112 C            0.7656     6.2058    19.3927 C             1 Polymer 
     113 C            1.1659     7.6871    19.1752 C             1 Polymer 
     114 C            2.4142     7.8435    18.2533 C             1 Polymer 
     115 C            2.5345     9.2592    17.6224 C             1 Polymer 
     116 C            1.6382    10.0893    16.7290 C             1 Polymer 
     117 C            2.5102    11.3301    16.3427 C             1 Polymer 
     118 C            1.8718    12.2493    15.3311 C             1 Polymer 
     119 C            3.7932     7.5217    18.9948 C             1 Polymer 
     120 C            4.9770     7.9009    18.0459 C             1 Polymer 
     121 C            6.4350     8.2654    18.3304 C             1 Polymer 
     122 C            7.0493     8.8279    16.9430 C             1 Polymer 
     123 C            7.1560     8.0920    15.5622 C             1 Polymer 
     124 C            8.5387     7.6377    14.9973 C             1 Polymer 
     125 H            0.1562     0.0638    12.3405 H             1 Polymer 
     126 H           -1.0799     0.2426    11.2683 H             1 Polymer 
     127 H           -1.3383    -1.1120    13.2838 H             1 Polymer 
     128 H           -2.3866     0.1659    13.6182 H             1 Polymer 
     129 H           -0.9730    -0.9121    15.4911 H             1 Polymer 
     130 H            0.4695    -0.4967    14.6720 H             1 Polymer 
     131 H            0.9019     1.3849    16.0336 H             1 Polymer 
     132 H            0.5154     0.0292    16.8749 H             1 Polymer 
     133 H           -0.9655     2.7300    17.0473 H             1 Polymer 
     134 H           -1.7286     1.4841    17.7767 H             1 Polymer 
     135 H            1.0339     2.3076    18.4483 H             1 Polymer 
     136 H            0.0411     1.2969    19.5172 H             1 Polymer 
     137 H           -1.5327     3.2801    19.9642 H             1 Polymer 
     138 H           -0.6496     4.1315    18.7161 H             1 Polymer 
     139 H            1.4741     3.7489    20.1503 H             1 Polymer 
     140 H            0.4520     3.4042    21.5160 H             1 Polymer 
     141 H           -0.2043     5.9418    21.3357 H             1 Polymer 
     142 H            1.5852     5.6877    21.3277 H             1 Polymer 
     143 H            1.4836     5.6013    18.8304 H             1 Polymer 
     144 H           -0.2491     6.1276    18.9733 H             1 Polymer 
     145 H            0.3442     8.1148    18.5548 H             1 Polymer 
     146 H            1.1922     8.2823    20.1071 H             1 Polymer 
     147 H            2.2933     7.1616    17.3847 H             1 Polymer 
     148 H            3.2463     9.0591    16.7955 H             1 Polymer 
     149 H            2.8838     9.9267    18.4464 H             1 Polymer 
     150 H            0.7402    10.4097    17.2594 H             1 Polymer 
     151 H            1.3599     9.5068    15.8206 H             1 Polymer 
     152 H            2.7502    11.9126    17.2619 H             1 Polymer 
     153 H            3.4845    11.0087    15.8998 H             1 Polymer 
     154 H            2.5711    13.0947    15.1410 H             1 Polymer 
     155 H            0.9171    12.6423    15.7258 H             1 Polymer 
     156 H            1.7144    11.6999    14.3804 H             1 Polymer 
     157 H            3.8600     8.1396    19.9142 H             1 Polymer 
     158 H            3.8361     6.4584    19.3076 H             1 Polymer 
     159 H            4.8034     8.9387    17.8534 H             1 Polymer 
     160 H            4.8843     7.2662    17.1406 H             1 Polymer 
     161 H            6.3999     9.0462    19.1187 H             1 Polymer 
     162 H            7.0292     7.5445    18.8892 H             1 Polymer 
     163 H            6.3757     9.6749    16.7246 H             1 Polymer 
     164 H            7.9825     9.3470    17.0118 H             1 Polymer 
     165 H            6.3459     7.3827    15.3979 H             1 Polymer 
     166 H            6.9610     8.9167    14.8482 H             1 Polymer 
     167 H            8.8643     6.6191    15.2302 H             1 Polymer 
     168 H            9.3528     8.3427    15.2634 H             1 Polymer 
     169 H            8.4945     7.6147    13.8881 H             1 Polymer 
     170 C            6.0519     0.7588    16.7238 C             1 Polymer 
     171 C            6.2149     1.0965    18.3137 C             1 Polymer 
     172 C            6.8279     2.1899    19.3410 C             1 Polymer 
     173 C            8.2681     2.3721    19.9034 C             1 Polymer 
     174 C            9.6824     2.9431    19.4691 C             1 Polymer 
     175 C           10.4462     2.4069    18.2204 C             1 Polymer 
     176 C           10.0543     3.2788    17.0157 C             1 Polymer 
     177 C           10.4291     2.9180    15.6166 C             1 Polymer 
     178 C            9.6909     3.7766    14.4834 C             1 Polymer 
     179 C            8.1259     3.8984    14.6171 C             1 Polymer 
     180 C            7.3265     4.5323    13.4308 C             1 Polymer 
     181 C            5.8044     4.9740    13.6599 C             1 Polymer 
     182 C            5.2797     5.6650    12.3821 C             1 Polymer 
     183 C            5.6899     7.1130    12.2490 C             1 Polymer 
     184 C            4.9179     7.7133    11.0685 C             1 Polymer 
     185 C            5.2266     9.1836    10.9157 C             1 Polymer 
     186 C            4.7892     3.8743    14.0412 C             1 Polymer 
     187 C            3.3714     4.3578    14.3484 C             1 Polymer 
     188 C            2.4485     3.2253    14.7418 C             1 Polymer 
     189 C            1.0073     3.6440    14.4594 C             1 Polymer 
     190 C            0.4890     4.8826    15.1242 C             1 Polymer 
     191 C            0.8144     4.8803    16.5615 C             1 Polymer 
     192 H            5.3911     1.5321    16.2872 H             1 Polymer 
     193 H            5.4357    -0.1792    16.7358 H             1 Polymer 
     194 H            5.2167     1.3111    18.3507 H             1 Polymer 
     195 H            6.1880     0.1822    18.9155 H             1 Polymer 
     196 H            6.3877     3.1554    19.3194 H             1 Polymer 
     197 H            6.3065     1.8880    20.2733 H             1 Polymer 
     198 H            8.3759     1.3977    20.2516 H             1 Polymer 
     199 H            8.1019     2.9871    20.8227 H             1 Polymer 
     200 H            9.6562     4.0395    19.4551 H             1 Polymer 
     201 H           10.3537     2.7466    20.3350 H             1 Polymer 
     202 H           10.3116     1.3323    18.1535 H             1 Polymer 
     203 H           11.5402     2.4564    18.3193 H             1 Polymer 
     204 H           10.5654     4.2158    17.1370 H             1 Polymer 
     205 H            8.9619     3.3334    17.0426 H             1 Polymer 
     206 H           10.1561     1.8919    15.6661 H             1 Polymer 
     207 H           11.5285     2.9316    15.4645 H             1 Polymer 
     208 H           10.1170     4.8001    14.4714 H             1 Polymer 
     209 H            9.9410     3.3494    13.4911 H             1 Polymer 
     210 H            7.6900     2.9230    14.8617 H             1 Polymer 
     211 H            8.0164     4.5665    15.4503 H             1 Polymer 
     212 H            7.8739     5.4506    13.1544 H             1 Polymer 
     213 H            7.3777     3.8333    12.5694 H             1 Polymer 
     214 H            5.7337     5.6662    14.4955 H             1 Polymer 
     215 H            4.1964     5.7595    12.3923 H             1 Polymer 
     216 H            5.5270     5.0630    11.4838 H             1 Polymer 
     217 H            6.7838     7.1968    12.1089 H             1 Polymer 
     218 H            5.3877     7.6525    13.1760 H             1 Polymer 
     219 H            5.1790     7.1656    10.1376 H             1 Polymer 
     220 H            3.8188     7.6109    11.2373 H             1 Polymer 
     221 H            4.6491     9.5806    10.0565 H             1 Polymer 
     222 H            6.3120     9.3145    10.7341 H             1 Polymer 
     223 H            4.9275     9.7250    11.8391 H             1 Polymer 
     224 H            4.6637     3.2207    13.1822 H             1 Polymer 
     225 H            5.1426     3.3260    14.9198 H             1 Polymer 
     226 H            2.9104     4.7578    13.4378 H             1 Polymer 
     227 H            3.3677     5.1391    15.1253 H             1 Polymer 
     228 H            2.6612     2.3404    14.1405 H             1 Polymer 
     229 H            2.5949     2.8727    15.7774 H             1 Polymer 
     230 H            0.8710     3.9130    13.4178 H             1 Polymer 
     231 H            0.3797     2.7863    14.6741 H             1 Polymer 
     232 H            0.9169     5.8027    14.6801 H             1 Polymer 
     233 H           -0.6053     4.9073    14.9671 H             1 Polymer 
     234 H            0.6716     3.9054    17.0007 H             1 Polymer 
     235 H            1.8832     5.0856    16.7137 H             1 Polymer 
     236 H            0.1650     5.6460    16.9931 H             1 Polymer 
     237 C            8.3041     0.2565    16.8004 C             1 Polymer 
     238 C            8.2942    -0.9358    17.9102 C             1 Polymer 
     239 C            9.2824    -1.0016    19.2117 C             1 Polymer 
     240 C            9.7813    -0.3391    20.6082 C             1 Polymer 
     241 C            9.3115    -0.1820    22.1150 C             1 Polymer 
     242 C            7.8672     0.1513    22.5554 C             1 Polymer 
     243 C            7.0588    -1.1001    22.2628 C             1 Polymer 
     244 C            5.5992    -1.1724    22.6745 C             1 Polymer 
     245 C            5.1478    -2.6839    22.7610 C             1 Polymer 
     246 C            4.1722    -3.6252    21.9251 C             1 Polymer 
     247 C            3.5377    -5.0478    22.5175 C             1 Polymer 
     248 C            2.0754    -5.5781    23.1200 C             1 Polymer 
     249 C            2.1342    -7.0392    23.6343 C             1 Polymer 
     250 C            2.8885    -8.0414    22.7648 C             1 Polymer 
     251 C            2.5062    -9.4607    23.2028 C             1 Polymer 
     252 C            3.2395   -10.5198    22.3970 C             1 Polymer 
     253 C            1.3240    -4.8357    24.2844 C             1 Polymer 
     254 C           -0.2444    -4.6323    24.4118 C             1 Polymer 
     255 C           -0.5543    -3.2997    25.2294 C             1 Polymer 
     256 C           -1.9615    -2.6510    25.2096 C             1 Polymer 
     257 C           -2.3304    -1.8342    23.9364 C             1 Polymer 
     258 C           -1.5748    -0.4970    23.7724 C             1 Polymer 
     259 H            8.4171     1.2158    17.3034 H             1 Polymer 
     260 H            8.4171     1.2158    17.3034 H             1 Polymer 
     261 H            7.3034    -1.2504    18.2302 H             1 Polymer 
     262 H            8.5691    -1.8112    17.2930 H             1 Polymer 
     263 H            9.2361    -2.0704    19.4497 H             1 Polymer 
     264 H           10.1963    -0.8055    18.7162 H             1 Polymer 
     265 H           10.2037     0.6338    20.3763 H             1 Polymer 
     266 H           10.7104    -0.8888    20.8222 H             1 Polymer 
     267 H            9.5713    -1.1146    22.6295 H             1 Polymer 
     268 H            9.9889     0.5710    22.5937 H             1 Polymer 
     269 H            7.4487     1.0814    22.1442 H             1 Polymer 
     270 H            7.8797     0.3092    23.6683 H             1 Polymer 
     271 H            7.5717    -1.8392    22.9099 H             1 Polymer 
     272 H            7.1280    -1.3567    21.1946 H             1 Polymer 
     273 H            4.9427    -0.4837    22.1078 H             1 Polymer 
     274 H            5.6411    -0.7908    23.7288 H             1 Polymer 
     275 H            5.0923    -2.8156    23.7506 H             1 Polymer 
     276 H            6.0509    -3.2434    22.8148 H             1 Polymer 
     277 H            3.5194    -3.0243    21.2843 H             1 Polymer 
     278 H            4.8961    -3.9650    21.1525 H             1 Polymer 
     279 H            3.5578    -5.6510    21.5902 H             1 Polymer 
     280 H            4.3131    -5.5544    23.0769 H             1 Polymer 
     281 H            1.3968    -5.5348    22.2427 H             1 Polymer 
     282 H            1.0789    -7.3674    23.7581 H             1 Polymer 
     283 H            2.6077    -7.0876    24.6439 H             1 Polymer 
     284 H            3.9862    -7.8773    22.8754 H             1 Polymer 
     285 H            2.6028    -7.9088    21.7028 H             1 Polymer 
     286 H            2.7164    -9.6155    24.2852 H             1 Polymer 
     287 H            1.4140    -9.5861    23.0342 H             1 Polymer 
     288 H            2.8448   -11.5202    22.6738 H             1 Polymer 
     289 H            4.3265   -10.4852    22.6195 H             1 Polymer 
     290 H            3.0744   -10.3581    21.3110 H             1 Polymer 
     291 H            1.8004    -4.9597    25.2818 H             1 Polymer 
     292 H            1.5281    -3.9375    23.9209 H             1 Polymer 
     293 H           -0.7384    -5.5004    24.8982 H             1 Polymer 
     294 H           -0.6822    -4.5355    23.4008 H             1 Polymer 
     295 H           -0.2746    -3.4980    26.2880 H             1 Polymer 
     296 H            0.0519    -2.4637    24.8727 H             1 Polymer 
     297 H           -2.7210    -3.4282    25.4119 H             1 Polymer 
     298 H           -2.0100    -1.9109    26.0448 H             1 Polymer 
     299 H           -2.2126    -2.4552    23.0267 H             1 Polymer 
     300 H           -3.3980    -1.5428    24.0257 H             1 Polymer 
     301 H           -1.6975     0.1596    24.6605 H             1 Polymer 
     302 H           -0.5047    -0.6400    23.5940 H             1 Polymer 
     303 H           -1.9725     0.0633    22.8992 H             1 Polymer 
     304 C           12.8431    -3.0819    15.9440 C             1 Polymer 
     305 C           12.8204    -3.8878    17.3910 C             1 Polymer 
     306 C           13.5247    -3.4803    18.8467 C             1 Polymer 
     307 C           12.9083    -3.9409    20.2955 C             1 Polymer 
     308 C           13.2184    -3.4437    21.8418 C             1 Polymer 
     309 C           12.2805    -2.4339    22.6870 C             1 Polymer 
     310 C           12.1994    -2.6381    24.2919 C             1 Polymer 
     311 C           11.1773    -1.6630    25.0287 C             1 Polymer 
     312 C           10.7409    -1.8202    26.5451 C             1 Polymer 
     313 C            9.9384    -3.1090    26.8629 C             1 Polymer 
     314 C            9.1726    -3.1795    28.2349 C             1 Polymer 
     315 C            7.6248    -2.8566    28.2379 C             1 Polymer 
     316 C            6.9562    -3.5359    29.5070 C             1 Polymer 
     317 C            7.1320    -5.0788    29.7389 C             1 Polymer 
     318 C            6.0555    -5.6387    30.7176 C             1 Polymer 
     319 C            6.1832    -7.1412    30.9978 C             1 Polymer 
     320 C            7.3056    -1.2940    27.9615 C             1 Polymer 
     321 C            5.8216    -0.7225    27.8179 C             1 Polymer 
     322 C            5.6593     0.6656    27.0864 C             1 Polymer 
     323 C            4.2617     1.4295    27.0353 C             1 Polymer 
     324 C            3.0456     1.1231    26.1007 C             1 Polymer 
     325 C            3.3330     1.1578    24.5922 C             1 Polymer 
     326 H           13.8953    -2.7164    15.8781 H             1 Polymer 
     327 H           12.7723    -3.8033    15.1059 H             1 Polymer 
     328 H           11.8068    -4.2855    17.5637 H             1 Polymer 
     329 H           13.4210    -4.7838    17.1062 H             1 Polymer 
     330 H           14.4601    -4.0879    18.8126 H             1 Polymer 
     331 H           14.2661    -2.6832    18.8859 H             1 Polymer 
     332 H           11.8167    -4.0591    20.1976 H             1 Polymer 
     333 H           13.2943    -4.9848    20.3395 H             1 Polymer 
     334 H           13.0297    -4.3749    22.4155 H             1 Polymer 
     335 H           14.2960    -3.2259    22.0223 H             1 Polymer 
     336 H           11.2554    -2.5927    22.3279 H             1 Polymer 
     337 H           12.5355    -1.3746    22.4873 H             1 Polymer 
     338 H           13.1977    -2.5112    24.7601 H             1 Polymer 
     339 H           11.8583    -3.6756    24.4861 H             1 Polymer 
     340 H           10.2185    -1.7142    24.5038 H             1 Polymer 
     341 H           11.5797    -0.6312    24.9264 H             1 Polymer 
     342 H           11.6032    -1.7338    27.2449 H             1 Polymer 
     343 H           10.0712    -0.9621    26.7694 H             1 Polymer 
     344 H            9.2063    -3.3439    26.0664 H             1 Polymer 
     345 H           10.7050    -3.9143    26.8579 H             1 Polymer 
     346 H            9.2182    -4.2628    28.4605 H             1 Polymer 
     347 H            9.7172    -2.6820    29.0675 H             1 Polymer 
     348 H            7.1964    -3.4102    27.3833 H             1 Polymer 
     349 H            5.9202    -3.4953    29.3080 H             1 Polymer 
     350 H            7.1808    -2.9858    30.4459 H             1 Polymer 
     351 H            8.1430    -5.2922    30.1432 H             1 Polymer 
     352 H            7.0051    -5.6170    28.7733 H             1 Polymer 
     353 H            6.1038    -5.1005    31.6873 H             1 Polymer 
     354 H            5.0465    -5.4743    30.2764 H             1 Polymer 
     355 H            5.3551    -7.4636    31.6719 H             1 Polymer 
     356 H            7.1413    -7.3735    31.5066 H             1 Polymer 
     357 H            6.1049    -7.7381    30.0647 H             1 Polymer 
     358 H            7.8120    -0.6756    28.7316 H             1 Polymer 
     359 H            7.7826    -1.0864    26.9836 H             1 Polymer 
     360 H            5.3731    -0.6195    28.8200 H             1 Polymer 
     361 H            5.2578    -1.4065    27.2356 H             1 Polymer 
     362 H            6.3067     1.3522    27.6683 H             1 Polymer 
     363 H            6.0682     0.6072    26.0555 H             1 Polymer 
     364 H            3.8497     1.4748    28.0646 H             1 Polymer 
     365 H            4.5193     2.4689    26.7395 H             1 Polymer 
     366 H            2.5081     0.2124    26.4020 H             1 Polymer 
     367 H            2.2912     1.9267    26.2612 H             1 Polymer 
     368 H            2.3864     1.0849    24.0107 H             1 Polymer 
     369 H            3.9627     0.3122    24.3127 H             1 Polymer 
     370 H            3.8272     2.0972    24.2766 H             1 Polymer 
     371 C           11.7762    -1.0319    16.8664 C             1 Polymer 
     372 C           13.0288    -0.5632    17.6724 C             1 Polymer 
     373 C           12.8214    -0.4956    19.2416 C             1 Polymer 
     374 C           14.1393    -0.3678    20.0976 C             1 Polymer 
     375 C           14.5045     1.0583    20.5372 C             1 Polymer 
     376 C           14.5809     1.9129    19.3002 C             1 Polymer 
     377 C           14.5721     3.4163    19.4851 C             1 Polymer 
     378 C           14.2889     3.9811    18.0764 C             1 Polymer 
     379 C           13.6215     5.3437    18.0248 C             1 Polymer 
     380 C           12.2688     5.3821    18.8001 C             1 Polymer 
     381 C           11.3371     6.4187    18.1640 C             1 Polymer 
     382 C            9.8751     6.6709    18.7709 C             1 Polymer 
     383 C            9.7842     8.2455    18.6104 C             1 Polymer 
     384 C            9.1317     9.1272    19.7071 C             1 Polymer 
     385 C            8.7481    10.5390    19.1624 C             1 Polymer 
     386 C            8.4461    11.5500    20.2402 C             1 Polymer 
     387 C            8.7027     5.8058    17.9472 C             1 Polymer 
     388 C            7.1474     5.3019    18.1748 C             1 Polymer 
     389 C            6.2834     4.2443    17.3323 C             1 Polymer 
     390 C            4.7099     4.0534    17.6563 C             1 Polymer 
     391 C            3.8218     3.6281    18.9185 C             1 Polymer 
     392 C            3.4679     2.1782    19.4200 C             1 Polymer 
     393 H           11.1063    -0.1536    16.7891 H             1 Polymer 
     394 H           11.2535    -1.8236    17.4289 H             1 Polymer 
     395 H           13.4133     0.3681    17.2329 H             1 Polymer 
     396 H           13.8076    -1.2852    17.4992 H             1 Polymer 
     397 H           12.1200     0.2942    19.5505 H             1 Polymer 
     398 H           12.3490    -1.4438    19.5432 H             1 Polymer 
     399 H           14.9919    -0.8174    19.5579 H             1 Polymer 
     400 H           14.0344    -0.9283    21.0409 H             1 Polymer 
     401 H           13.7061     1.4321    21.2190 H             1 Polymer 
     402 H           15.4679     1.0663    21.0942 H             1 Polymer 
     403 H           13.6130     1.7438    18.8294 H             1 Polymer 
     404 H           15.3967     1.5679    18.6301 H             1 Polymer 
     405 H           15.5110     3.8152    19.9256 H             1 Polymer 
     406 H           13.7317     3.6430    20.1743 H             1 Polymer 
     407 H           15.2132     3.9315    17.4611 H             1 Polymer 
     408 H           13.5475     3.3439    17.5403 H             1 Polymer 
     409 H           14.2936     6.1605    18.3544 H             1 Polymer 
     410 H           13.4217     5.4811    16.9370 H             1 Polymer 
     411 H           11.8017     4.4241    18.7829 H             1 Polymer 
     412 H           12.4553     5.5877    19.8761 H             1 Polymer 
     413 H           12.0204     7.2792    18.2917 H             1 Polymer 
     414 H           11.2528     6.3003    17.0619 H             1 Polymer 
     415 H            9.9230     6.4348    19.8551 H             1 Polymer 
     416 H            9.6337     8.4494    17.5512 H             1 Polymer 
     417 H           10.7702     8.7476    18.6620 H             1 Polymer 
     418 H            9.8950     9.2520    20.5085 H             1 Polymer 
     419 H            8.2833     8.6480    20.2175 H             1 Polymer 
     420 H            9.5274    10.9453    18.4816 H             1 Polymer 
     421 H            7.8096    10.5250    18.6072 H             1 Polymer 
     422 H            8.0178    12.4593    19.7582 H             1 Polymer 
     423 H            9.3825    11.8213    20.7605 H             1 Polymer 
     424 H            7.6961    11.1379    20.9461 H             1 Polymer 
     425 H            8.5019     6.5800    17.2432 H             1 Polymer 
     426 H            9.0605     5.4555    17.0094 H             1 Polymer 
     427 H            6.5564     6.0561    17.7169 H             1 Polymer 
     428 H            6.9362     5.2224    19.2539 H             1 Polymer 
     429 H            6.2254     4.5906    16.3028 H             1 Polymer 
     430 H            6.7987     3.2913    17.2186 H             1 Polymer 
     431 H            4.3026     5.0526    17.4115 H             1 Polymer 
     432 H            4.3343     3.3777    16.8824 H             1 Polymer 
     433 H            4.0604     4.2498    19.7974 H             1 Polymer 
     434 H            2.8264     3.9121    18.5417 H             1 Polymer 
     435 H            3.1613     1.5138    18.5729 H             1 Polymer 
     436 H            4.2330     1.7073    20.0538 H             1 Polymer 
     437 H            2.6348     2.1058    20.1320 H             1 Polymer 
     438 C           -9.1429    10.0865    12.6877 C             1 Polymer 
     439 C          -10.0913     9.5883    11.6522 C             1 Polymer 
     440 C          -10.0733     8.1214    11.4939 C             1 Polymer 
     441 C           -8.4991     7.9919    11.6314 C             1 Polymer 
     442 C           -7.5017     7.0479    12.1632 C             1 Polymer 
     443 C           -6.0924     7.4537    12.2092 C             1 Polymer 
     444 C           -5.7592     8.5144    11.3588 C             1 Polymer 
     445 C           -6.7289     9.5646    11.2472 C             1 Polymer 
     446 C           -8.0449     9.2969    11.7916 C             1 Polymer 
     447 C           -4.2691     8.3702    11.0710 C             1 Polymer 
     448 C           -3.7832     7.5845    12.0042 C             1 Polymer 
     449 C           -4.7479     7.2840    13.1368 C             1 Polymer 
     450 C           -2.5643     6.8165    11.6714 C             1 Polymer 
     451 C           -2.0043     6.9305    10.3259 C             1 Polymer 
     452 S           -3.2849     8.0962     9.5066 S             1 Polymer 
     453 S          -10.9979     8.0325     9.8062 S             1 Polymer 
     454 C          -11.4358     9.8649     9.6114 C             1 Polymer 
     455 C          -10.6859    10.4282    10.7655 C             1 Polymer 
     456 H           -7.8605     6.1493    12.6339 H             1 Polymer 
     457 H           -6.3608    10.5402    10.9826 H             1 Polymer 
     458 H           -2.4614     5.8702    12.1165 H             1 Polymer 
     459 H          -10.4494    11.4589    10.8327 H             1 Polymer 
     460 C          -16.9822    11.4711     9.3916 C             1 Polymer 
     461 C          -17.0356    12.4122     8.1264 C             1 Polymer 
     462 C          -15.8565    12.8871     7.7584 C             1 Polymer 
     463 S          -15.8236    14.0606     6.3896 S             1 Polymer 
     464 C          -17.6210    13.8990     6.3644 C             1 Polymer 
     465 C          -18.1188    12.9999     7.3054 C             1 Polymer 
     466 C          -14.7899    12.2355     8.5066 C             1 Polymer 
     467 C          -15.3414    11.4063     9.3934 C             1 Polymer 
     468 C          -14.2904    10.3159     9.6889 C             1 Polymer 
     469 C          -12.8893    10.4954     9.0868 C             1 Polymer 
     470 S          -12.9995    12.1006     8.1359 S             1 Polymer 
     471 H          -19.1783    12.8113     7.4133 H             1 Polymer 
     472 H          -14.6285     9.2992     9.7615 H             1 Polymer 
     473 C          -18.2091    12.1231    10.3245 C             1 Polymer 
     474 C          -18.8866    11.9110    11.8276 C             1 Polymer 
     475 C          -19.6891    10.8039    12.8263 C             1 Polymer 
     476 C          -19.6343     9.4033    13.7963 C             1 Polymer 
     477 C          -19.1274     8.9048    15.3445 C             1 Polymer 
     478 C          -17.6614     8.3917    15.9107 C             1 Polymer 
     479 C          -17.4102     7.9789    17.4783 C             1 Polymer 
     480 C          -15.8698     7.9187    18.0676 C             1 Polymer 
     481 C          -15.5664     7.2723    19.5515 C             1 Polymer 
     482 C          -14.3785     7.6829    20.7194 C             1 Polymer 
     483 C          -13.8135     6.7929    22.1028 C             1 Polymer 
     484 C          -12.4395     6.4143    22.9453 C             1 Polymer 
     485 C          -12.6932     6.0964    24.4728 C             1 Polymer 
     486 C          -13.5558     7.0417    25.3783 C             1 Polymer 
     487 C          -13.1063     6.9780    26.8683 C             1 Polymer 
     488 C          -13.7815     7.9307    27.8408 C             1 Polymer 
     489 C          -11.5677     5.0940    22.4594 C             1 Polymer 
     490 C           -9.9943     5.0717    22.2111 C             1 Polymer 
     491 C           -9.5902     4.1262    20.9974 C             1 Polymer 
     492 C           -8.0999     4.0901    20.5442 C             1 Polymer 
     493 C           -7.4968     5.3884    19.9964 C             1 Polymer 
     494 C           -7.9968     5.8153    18.6196 C             1 Polymer 
     495 H          -19.1034    11.9800     9.6732 H             1 Polymer 
     496 H          -18.0441    13.2285    10.2786 H             1 Polymer 
     497 H          -18.2451    12.4961    12.4192 H             1 Polymer 
     498 H          -19.7164    12.6519    11.7099 H             1 Polymer 
     499 H          -20.1480    11.5131    13.5538 H             1 Polymer 
     500 H          -20.5236    10.5378    12.1364 H             1 Polymer 
     501 H          -19.4950     8.5431    13.1200 H             1 Polymer 
     502 H          -20.7305     9.3546    14.0041 H             1 Polymer 
     503 H          -19.4861     9.6757    16.0626 H             1 Polymer 
     504 H          -19.7720     8.0238    15.5528 H             1 Polymer 
     505 H          -16.9605     9.1763    15.7977 H             1 Polymer 
     506 H          -17.3138     7.5514    15.2741 H             1 Polymer 
     507 H          -17.9241     7.0092    17.6542 H             1 Polymer 
     508 H          -17.9182     8.7378    18.1001 H             1 Polymer 
     509 H          -15.4427     8.9363    18.0213 H             1 Polymer 
     510 H          -15.2848     7.3106    17.3358 H             1 Polymer 
     511 H          -16.5371     7.2203    20.0367 H             1 Polymer 
     512 H          -15.4071     6.2311    19.2347 H             1 Polymer 
     513 H          -13.5617     8.1086    20.1719 H             1 Polymer 
     514 H          -14.7865     8.5973    21.1663 H             1 Polymer 
     515 H          -14.5708     7.0048    22.8793 H             1 Polymer 
     516 H          -13.8036     5.7754    21.8437 H             1 Polymer 
     517 H          -11.8238     7.3078    22.8109 H             1 Polymer 
     518 H          -11.6744     6.0698    24.8509 H             1 Polymer 
     519 H          -13.0849     5.0659    24.6254 H             1 Polymer 
     520 H          -14.6233     6.7542    25.2857 H             1 Polymer 
     521 H          -13.4577     8.0904    25.0607 H             1 Polymer 
     522 H          -13.1381     5.9399    27.2642 H             1 Polymer 
     523 H          -12.0984     7.3621    26.9289 H             1 Polymer 
     524 H          -13.2420     7.8684    28.8186 H             1 Polymer 
     525 H          -14.8397     7.6656    28.0015 H             1 Polymer 
     526 H          -13.6777     8.9774    27.4806 H             1 Polymer 
     527 H          -11.9175     4.1302    22.8932 H             1 Polymer 
     528 H          -11.8902     4.9444    21.4875 H             1 Polymer 
     529 H           -9.4566     4.7078    23.1115 H             1 Polymer 
     530 H           -9.6438     6.0950    21.9777 H             1 Polymer 
     531 H           -9.8743     3.0873    21.2550 H             1 Polymer 
     532 H          -10.1682     4.3563    20.0909 H             1 Polymer 
     533 H           -7.4755     3.7680    21.3994 H             1 Polymer 
     534 H           -7.9849     3.3342    19.7324 H             1 Polymer 
     535 H           -7.6222     6.2009    20.7370 H             1 Polymer 
     536 H           -6.4098     5.2178    19.8551 H             1 Polymer 
     537 H           -7.7194     5.1107    17.8138 H             1 Polymer 
     538 H           -9.0719     5.9655    18.5385 H             1 Polymer 
     539 H           -7.5115     6.7731    18.4293 H             1 Polymer 
     540 C          -17.3816    10.0139     9.3157 C             1 Polymer 
     541 C          -17.7529     9.4115    10.7391 C             1 Polymer 
     542 C          -16.9645     9.4867    12.1750 C             1 Polymer 
     543 C          -16.5454    10.4209    13.4911 C             1 Polymer 
     544 C          -17.3507    11.3695    14.5955 C             1 Polymer 
     545 C          -16.6325    11.7519    15.9510 C             1 Polymer 
     546 C          -17.1966    13.0316    16.6886 C             1 Polymer 
     547 C          -16.1833    13.5955    17.7575 C             1 Polymer 
     548 C          -16.0556    15.1517    17.9727 C             1 Polymer 
     549 C          -15.9956    15.8587    16.6120 C             1 Polymer 
     550 C          -15.5824    17.3374    16.3861 C             1 Polymer 
     551 C          -14.2785    17.4909    15.5487 C             1 Polymer 
     552 C          -14.1254    18.9071    14.9076 C             1 Polymer 
     553 C          -15.0012    19.7271    13.9766 C             1 Polymer 
     554 C          -14.1059    20.9534    13.5830 C             1 Polymer 
     555 C          -14.7136    21.8748    12.5528 C             1 Polymer 
     556 C          -12.9454    17.1569    16.3679 C             1 Polymer 
     557 C          -11.7181    17.5218    15.4765 C             1 Polymer 
     558 C          -10.2598    17.9021    15.7355 C             1 Polymer 
     559 C           -9.6960    18.4421    14.3115 C             1 Polymer 
     560 C           -9.6262    17.7297    12.9111 C             1 Polymer 
     561 C           -8.2746    17.2587    12.3019 C             1 Polymer 
     562 H          -16.6161     9.4125     8.7851 H             1 Polymer 
     563 H          -18.2732     9.9253     8.6537 H             1 Polymer 
     564 H          -17.8324     8.3345    10.4919 H             1 Polymer 
     565 H          -18.8146     9.6549    10.8691 H             1 Polymer 
     566 H          -17.4654     8.6517    12.6819 H             1 Polymer 
     567 H          -15.9868     9.0664    11.8776 H             1 Polymer 
     568 H          -15.6615    10.9926    13.2263 H             1 Polymer 
     569 H          -16.0534     9.6482    14.0889 H             1 Polymer 
     570 H          -17.5733    12.3299    14.1825 H             1 Polymer 
     571 H          -18.3310    11.0844    14.9271 H             1 Polymer 
     572 H          -15.6013    11.9594    15.6524 H             1 Polymer 
     573 H          -16.6097    10.9477    16.7076 H             1 Polymer 
     574 H          -18.2096    12.8987    17.1284 H             1 Polymer 
     575 H          -17.3302    13.7674    15.8961 H             1 Polymer 
     576 H          -15.2002    13.3631    17.3749 H             1 Polymer 
     577 H          -16.2519    13.0382    18.7161 H             1 Polymer 
     578 H          -16.8879    15.5659    18.5747 H             1 Polymer 
     579 H          -15.0988    15.3305    18.5161 H             1 Polymer 
     580 H          -15.2993    15.2530    16.0239 H             1 Polymer 
     581 H          -17.0405    15.7924    16.2447 H             1 Polymer 
     582 H          -16.3527    17.7328    15.6824 H             1 Polymer 
     583 H          -15.6477    17.9659    17.2946 H             1 Polymer 
     584 H          -14.3497    16.8035    14.6780 H             1 Polymer 
     585 H          -13.3670    18.7062    14.1219 H             1 Polymer 
     586 H          -13.8169    19.5840    15.7383 H             1 Polymer 
     587 H          -15.9275    20.0553    14.4828 H             1 Polymer 
     588 H          -15.2489    19.1305    13.0686 H             1 Polymer 
     589 H          -13.8641    21.5447    14.4956 H             1 Polymer 
     590 H          -13.1313    20.6127    13.1525 H             1 Polymer 
     591 H          -13.9975    22.7068    12.3630 H             1 Polymer 
     592 H          -15.6651    22.2902    12.9329 H             1 Polymer 
     593 H          -14.8701    21.3221    11.6039 H             1 Polymer 
     594 H          -12.9206    17.7774    17.2868 H             1 Polymer 
     595 H          -12.9316    16.0911    16.6786 H             1 Polymer 
     596 H          -11.8964    18.5618    15.3082 H             1 Polymer 
     597 H          -11.7901    16.8856    14.5714 H             1 Polymer 
     598 H          -10.2463    18.7115    16.4987 H             1 Polymer 
     599 H           -9.6653    17.1772    16.2975 H             1 Polymer 
     600 H          -10.3702    19.2945    14.1132 H             1 Polymer 
     601 H           -8.7653    18.9439    14.3506 H             1 Polymer 
     602 H          -10.4546    17.0357    12.7343 H             1 Polymer 
     603 H           -9.8003    18.5755    12.2155 H             1 Polymer 
     604 H           -7.4313    17.9530    12.4891 H             1 Polymer 
     605 H           -7.9737    16.2513    12.5142 H             1 Polymer 
     606 H           -8.3641    17.1985    11.2000 H             1 Polymer 
     607 C          -10.2562    10.5907    13.8163 C             1 Polymer 
     608 C          -10.2020    10.8652    15.4501 C             1 Polymer 
     609 C           -9.7955    11.9222    16.6185 C             1 Polymer 
     610 C           -8.4278    12.2189    17.2967 C             1 Polymer 
     611 C           -7.1536    12.8849    16.6943 C             1 Polymer 
     612 C           -6.9616    12.4983    15.2208 C             1 Polymer 
     613 C           -5.9390    12.9357    14.1362 C             1 Polymer 
     614 C           -6.2757    12.4418    12.7098 C             1 Polymer 
     615 C           -7.1204    13.2734    11.6754 C             1 Polymer 
     616 C           -8.6234    13.4974    11.9317 C             1 Polymer 
     617 C           -9.3812    14.1186    10.7145 C             1 Polymer 
     618 C          -10.8884    14.5545    10.8982 C             1 Polymer 
     619 C          -11.4022    15.2203     9.6019 C             1 Polymer 
     620 C          -10.9354    16.6485     9.4294 C             1 Polymer 
     621 C          -11.6946    17.2672     8.2517 C             1 Polymer 
     622 C          -11.3392    18.7284     8.1045 C             1 Polymer 
     623 C          -11.8677    13.4306    11.2821 C             1 Polymer 
     624 C          -13.2851    13.9339    11.5528 C             1 Polymer 
     625 C          -14.2173    12.8471    12.0042 C             1 Polymer 
     626 C          -15.6527    13.2700    11.6731 C             1 Polymer 
     627 C          -16.1843    14.5215    12.3169 C             1 Polymer 
     628 C          -15.8547    14.5534    13.7590 C             1 Polymer 
     629 H          -10.8595    11.3829    13.3697 H             1 Polymer 
     630 H          -10.9764     9.7195    13.8338 H             1 Polymer 
     631 H          -11.2604    10.9316    15.5031 H             1 Polymer 
     632 H          -10.0722     9.9383    15.9953 H             1 Polymer 
     633 H          -10.3240    12.8537    16.6102 H             1 Polymer 
     634 H          -10.3272    11.4887    17.4905 H             1 Polymer 
     635 H           -8.1950    11.2807    17.6439 H             1 Polymer 
     636 H           -8.6377    12.7901    18.2326 H             1 Polymer 
     637 H           -7.2426    13.9382    16.9159 H             1 Polymer 
     638 H           -6.2660    12.6147    17.3116 H             1 Polymer 
     639 H           -7.9207    12.6759    14.7493 H             1 Polymer 
     640 H           -6.6438    11.4710    15.4230 H             1 Polymer 
     641 H           -5.7181    13.9928    14.0254 H             1 Polymer 
     642 H           -5.0159    12.4110    14.4224 H             1 Polymer 
     643 H           -5.2944    12.3250    12.2017 H             1 Polymer 
     644 H           -6.6963    11.4539    12.8298 H             1 Polymer 
     645 H           -6.6283    14.2572    11.5143 H             1 Polymer 
     646 H           -7.0630    12.7178    10.7170 H             1 Polymer 
     647 H           -9.1033    12.5579    12.2157 H             1 Polymer 
     648 H           -8.6505    14.1807    12.7533 H             1 Polymer 
     649 H           -8.8169    15.0256    10.4300 H             1 Polymer 
     650 H           -9.3224    13.4048     9.8674 H             1 Polymer 
     651 H          -10.9663    15.2772    11.7181 H             1 Polymer 
     652 H          -12.4823    15.3725     9.6299 H             1 Polymer 
     653 H          -11.2003    14.5801     8.7186 H             1 Polymer 
     654 H           -9.8420    16.6884     9.2712 H             1 Polymer 
     655 H          -11.2006    17.2153    10.3523 H             1 Polymer 
     656 H          -11.4539    16.7095     7.3213 H             1 Polymer 
     657 H          -12.7956    17.2011     8.4243 H             1 Polymer 
     658 H          -11.9029    19.1504     7.2485 H             1 Polymer 
     659 H          -10.2495    18.8273     7.9269 H             1 Polymer 
     660 H          -11.6215    19.2736     9.0315 H             1 Polymer 
     661 H          -11.9674    12.7237    10.4583 H             1 Polymer 
     662 H          -11.5024    12.9281    12.1730 H             1 Polymer 
     663 H          -13.7266    14.2594    10.6036 H             1 Polymer 
     664 H          -13.2987    14.7683    12.2794 H             1 Polymer 
     665 H          -13.9971    11.9270    11.4637 H             1 Polymer 
     666 H          -14.0819    12.5772    13.0664 H             1 Polymer 
     667 H          -15.7823    13.4729    10.6010 H             1 Polymer 
     668 H          -16.2638    12.4203    11.9195 H             1 Polymer 
     669 H          -15.7585    15.4354    11.8594 H             1 Polymer 
     670 H          -17.2857    14.5359    12.1718 H             1 Polymer 
     671 H          -15.9961    13.5884    14.2216 H             1 Polymer 
     672 H          -14.7841    14.7613    13.9109 H             1 Polymer 
     673 H          -16.5026    15.3254    14.1914 H             1 Polymer 
     674 C           -8.2564     9.5551    13.8943 C             1 Polymer 
     675 C           -8.4758     8.4855    15.0358 C             1 Polymer 
     676 C           -7.5860     8.6970    16.3771 C             1 Polymer 
     677 C           -7.0102     9.3367    17.7423 C             1 Polymer 
     678 C           -7.4447     9.4475    19.2611 C             1 Polymer 
     679 C           -8.8940     9.7527    19.7248 C             1 Polymer 
     680 C           -9.6908     8.4909    19.4378 C             1 Polymer 
     681 C          -11.1798     8.3865    19.7620 C             1 Polymer 
     682 C          -11.5644     6.8424    19.8022 C             1 Polymer 
     683 C          -12.7361     5.9720    19.0969 C             1 Polymer 
     684 C          -13.4581     4.5787    19.6825 C             1 Polymer 
     685 C          -14.9039     4.0203    20.3836 C             1 Polymer 
     686 C          -14.6742     2.6172    21.0188 C             1 Polymer 
     687 C          -13.8671     1.6198    20.1845 C             1 Polymer 
     688 C          -14.2078     0.1891    20.5982 C             1 Polymer 
     689 C          -13.4299    -0.8133    19.7595 C             1 Polymer 
     690 C          -15.8076     4.7429    21.5114 C             1 Polymer 
     691 C          -17.3281     5.1170    21.5558 C             1 Polymer 
     692 C          -17.4928     6.4093    22.4850 C             1 Polymer 
     693 C          -18.8058     7.2186    22.4027 C             1 Polymer 
     694 C          -19.0177     8.0407    21.1039 C             1 Polymer 
     695 C          -18.1090     9.2826    20.9639 C             1 Polymer 
     696 H           -7.9243    10.4424    14.3534 H             1 Polymer 
     697 H           -7.9243    10.4424    14.3534 H             1 Polymer 
     698 H           -9.5227     8.1931    15.2221 H             1 Polymer 
     699 H           -8.1144     7.5635    14.5540 H             1 Polymer 
     700 H           -7.4803     7.6381    16.6043 H             1 Polymer 
     701 H           -6.7500     9.1238    15.8649 H             1 Polymer 
     702 H           -6.5103    10.3051    17.5136 H             1 Polymer 
     703 H           -6.1111     8.7282    17.9032 H             1 Polymer 
     704 H           -7.1564     8.5109    19.7599 H             1 Polymer 
     705 H           -6.7657    10.2013    19.7308 H             1 Polymer 
     706 H           -9.3306    10.6740    19.3182 H             1 Polymer 
     707 H           -8.8707     9.9088    20.8350 H             1 Polymer 
     708 H           -9.1848     7.7531    20.0950 H             1 Polymer 
     709 H           -9.5896     8.2396    18.3695 H             1 Polymer 
     710 H          -11.7943     9.0287    19.1028 H             1 Polymer 
     711 H          -11.2799     8.8087    20.8018 H             1 Polymer 
     712 H          -10.6718     6.2700    19.7052 H             1 Polymer 
     713 H          -11.5737     6.7773    20.8254 H             1 Polymer 
     714 H          -13.3868     6.6203    18.5076 H             1 Polymer 
     715 H          -12.1185     5.5840    18.2590 H             1 Polymer 
     716 H          -13.5928     4.0689    18.7095 H             1 Polymer 
     717 H          -12.6406     3.9301    20.0154 H             1 Polymer 
     718 H          -15.5950     3.9270    19.5213 H             1 Polymer 
     719 H          -15.6836     2.2015    21.2260 H             1 Polymer 
     720 H          -14.1494     2.7072    22.0042 H             1 Polymer 
     721 H          -12.7741     1.8003    20.3176 H             1 Polymer 
     722 H          -14.1331     1.7380    19.1167 H             1 Polymer 
     723 H          -14.0008     0.0180    21.6780 H             1 Polymer 
     724 H          -15.2932     0.0338    20.4132 H             1 Polymer 
     725 H          -13.7871    -1.8377    19.9899 H             1 Polymer 
     726 H          -12.3456    -0.7422    19.9869 H             1 Polymer 
     727 H          -13.5930    -0.6132    18.6784 H             1 Polymer 
     728 H          -15.4366     4.5821    22.5533 H             1 Polymer 
     729 H          -15.6207     5.6853    21.2163 H             1 Polymer 
     730 H          -17.9590     4.2880    21.9373 H             1 Polymer 
     731 H          -17.6690     5.3574    20.5272 H             1 Polymer 
     732 H          -17.3294     6.0900    23.5372 H             1 Polymer 
     733 H          -16.7115     7.1687    22.2871 H             1 Polymer 
     734 H          -19.6518     6.5224    22.5562 H             1 Polymer 
     735 H          -18.8179     7.9579    23.2383 H             1 Polymer 
     736 H          -18.9298     7.3850    20.2139 H             1 Polymer 
     737 H          -20.0527     8.4420    21.1277 H             1 Polymer 
     738 H          -18.2419     9.9761    21.8174 H             1 Polymer 
     739 H          -17.0371     9.0508    20.9102 H             1 Polymer 
     740 H          -18.3744     9.8382    20.0386 H             1 Polymer 
     741 C           -3.9811     6.2406    14.0957 C             1 Polymer 
     742 C           -4.3998     5.8640    15.5539 C             1 Polymer 
     743 C           -3.1852     5.8205    16.5805 C             1 Polymer 
     744 C           -3.5984     5.4248    18.0579 C             1 Polymer 
     745 C           -3.3704     6.1733    19.4621 C             1 Polymer 
     746 C           -4.3416     7.2599    20.0761 C             1 Polymer 
     747 C           -4.4982     7.1386    21.6615 C             1 Polymer 
     748 C           -5.5601     8.1102    22.2863 C             1 Polymer 
     749 C           -6.0150     7.9330    23.7809 C             1 Polymer 
     750 C           -6.7120     6.5810    24.0713 C             1 Polymer 
     751 C           -7.4669     6.4445    25.4343 C             1 Polymer 
     752 C           -9.0071     6.7631    25.4585 C             1 Polymer 
     753 C           -9.6409     6.0708    26.7426 C             1 Polymer 
     754 C           -9.4679     4.5199    26.9601 C             1 Polymer 
     755 C          -10.5321     3.9544    27.9547 C             1 Polymer 
     756 C          -10.4125     2.4484    28.2392 C             1 Polymer 
     757 C           -9.3201     8.3276    25.1674 C             1 Polymer 
     758 C          -10.7906     8.9122    25.0459 C             1 Polymer 
     759 C          -11.0009    10.3023    24.3322 C             1 Polymer 
     760 C          -12.4956    10.8001    24.2312 C             1 Polymer 
     761 C          -13.4016    10.2549    23.0900 C             1 Polymer 
     762 C          -13.1710    10.9203    21.7189 C             1 Polymer 
     763 H           -3.0292     6.8132    14.2725 H             1 Polymer 
     764 H           -3.6710     5.3020    13.6130 H             1 Polymer 
     765 H           -5.1631     6.5366    15.9435 H             1 Polymer 
     766 H           -4.8790     4.8696    15.4995 H             1 Polymer 
     767 H           -2.4919     5.0507    16.1826 H             1 Polymer 
     768 H           -2.5174     6.6978    16.5663 H             1 Polymer 
     769 H           -4.6176     5.0020    18.0283 H             1 Polymer 
     770 H           -2.9380     4.5450    18.2012 H             1 Polymer 
     771 H           -3.5158     5.3186    20.1536 H             1 Polymer 
     772 H           -2.3213     6.4882    19.6248 H             1 Polymer 
     773 H           -5.3396     7.1052    19.6483 H             1 Polymer 
     774 H           -4.0240     8.2867    19.7902 H             1 Polymer 
     775 H           -3.5196     7.2944    22.1683 H             1 Polymer 
     776 H           -4.8353     6.1046    21.8808 H             1 Polymer 
     777 H           -6.4922     8.0143    21.7134 H             1 Polymer 
     778 H           -5.1833     9.1491    22.1700 H             1 Polymer 
     779 H           -5.1699     8.0723    24.4917 H             1 Polymer 
     780 H           -6.7351     8.7484    23.9854 H             1 Polymer 
     781 H           -7.4152     6.2969    23.2632 H             1 Polymer 
     782 H           -5.8864     5.8360    24.0698 H             1 Polymer 
     783 H           -7.4080     5.3544    25.6299 H             1 Polymer 
     784 H           -6.9269     6.9379    26.2710 H             1 Polymer 
     785 H           -9.4480     6.2116    24.6171 H             1 Polymer 
     786 H          -10.6846     6.1046    26.6097 H             1 Polymer 
     787 H           -9.3870     6.6069    27.6822 H             1 Polymer 
     788 H           -8.4502     4.2937    27.3413 H             1 Polymer 
     789 H           -9.6191     3.9822    25.9972 H             1 Polymer 
     790 H          -10.4724     4.4896    28.9253 H             1 Polymer 
     791 H          -11.5470     4.1154    27.5283 H             1 Polymer 
     792 H          -11.2349     2.1351    28.9247 H             1 Polymer 
     793 H           -9.4503     2.2098    28.7377 H             1 Polymer 
     794 H          -10.5080     1.8480    27.3095 H             1 Polymer 
     795 H           -8.7858     8.9548    25.9038 H             1 Polymer 
     796 H           -8.8943     8.5028    24.1617 H             1 Polymer 
     797 H          -11.2337     9.0105    26.0495 H             1 Polymer 
     798 H          -11.3620     8.2370    24.4739 H             1 Polymer 
     799 H          -10.4632    11.0427    24.9548 H             1 Polymer 
     800 H          -10.5544    10.3163    23.3111 H             1 Polymer 
     801 H          -12.9883    10.5820    25.2021 H             1 Polymer 
     802 H          -12.5167    11.9059    24.1104 H             1 Polymer 
     803 H          -13.3096     9.1636    23.0227 H             1 Polymer 
     804 H          -14.4647    10.4854    23.3384 H             1 Polymer 
     805 H          -13.3900    12.0075    21.7709 H             1 Polymer 
     806 H          -12.1396    10.7799    21.3560 H             1 Polymer 
     807 H          -13.8691    10.5176    20.9543 H             1 Polymer 
     808 C           -4.9511     8.5153    14.1503 C             1 Polymer 
     809 C           -4.0323     9.3097    15.2108 C             1 Polymer 
     810 C           -3.7507     8.9322    16.7436 C             1 Polymer 
     811 C           -2.3206     9.1084    17.3754 C             1 Polymer 
     812 C           -2.0334    10.5373    17.9202 C             1 Polymer 
     813 C           -2.1750    11.4859    16.7606 C             1 Polymer 
     814 C           -2.0985    12.9934    16.9450 C             1 Polymer 
     815 C           -2.3966    13.5361    15.5296 C             1 Polymer 
     816 C           -3.0498    14.8985    15.4124 C             1 Polymer 
     817 C           -4.4198    14.9727    16.1486 C             1 Polymer 
     818 C           -5.2400    16.1045    15.5281 C             1 Polymer 
     819 C           -6.7362    16.3898    15.9826 C             1 Polymer 
     820 C           -6.8477    17.9335    15.6544 C             1 Polymer 
     821 C           -7.3840    18.8740    16.7801 C             1 Polymer 
     822 C           -7.8284    20.2833    16.2800 C             1 Polymer 
     823 C           -8.0772    21.2728    17.3961 C             1 Polymer 
     824 C           -7.8189    15.3465    15.2492 C             1 Polymer 
     825 C           -9.4396    15.0422    15.3750 C             1 Polymer 
     826 C          -10.3802    13.9820    14.6086 C             1 Polymer 
     827 C          -11.9444    13.7595    14.9326 C             1 Polymer 
     828 C          -12.8191    13.2576    16.1699 C             1 Polymer 
     829 C          -13.1230    11.7711    16.5789 C             1 Polymer 
     830 H           -5.3917     9.3696    13.5946 H             1 Polymer 
     831 H           -5.7619     8.0558    14.6756 H             1 Polymer 
     832 H           -3.1985     9.8441    14.7239 H             1 Polymer 
     833 H           -4.7289    10.1559    15.4173 H             1 Polymer 
     834 H           -4.3374     9.5954    17.4033 H             1 Polymer 
     835 H           -4.1973     7.9904    17.0272 H             1 Polymer 
     836 H           -1.5380     8.7657    16.6664 H             1 Polymer 
     837 H           -2.2446     8.4626    18.2741 H             1 Polymer 
     838 H           -2.7586    10.7953    18.7250 H             1 Polymer 
     839 H           -1.0291    10.5937    18.3810 H             1 Polymer 
     840 H           -3.2235    11.3549    16.4568 H             1 Polymer 
     841 H           -1.4717    11.1671    15.9614 H             1 Polymer 
     842 H           -1.1126    13.3542    17.3069 H             1 Polymer 
     843 H           -2.8841    13.2786    17.6780 H             1 Polymer 
     844 H           -3.1303    12.8862    15.0328 H             1 Polymer 
     845 H           -1.4914    13.4464    14.8925 H             1 Polymer 
     846 H           -2.3729    15.7222    15.7123 H             1 Polymer 
     847 H           -3.2316    14.9936    14.3144 H             1 Polymer 
     848 H           -4.9426    14.0307    16.0632 H             1 Polymer 
     849 H           -4.2689    15.1358    17.2364 H             1 Polymer 
     850 H           -4.5598    16.9435    15.7828 H             1 Polymer 
     851 H           -5.2394    16.0557    14.4155 H             1 Polymer 
     852 H           -6.7657    16.2939    17.0866 H             1 Polymer 
     853 H           -7.0553    18.0470    14.5982 H             1 Polymer 
     854 H           -5.8635    18.4435    15.5548 H             1 Polymer 
     855 H           -6.5474    19.0108    17.5050 H             1 Polymer 
     856 H           -8.1917    18.4074    17.3635 H             1 Polymer 
     857 H           -7.1027    20.7116    15.5549 H             1 Polymer 
     858 H           -8.8139    20.2581    15.8072 H             1 Polymer 
     859 H           -8.5491    22.1843    16.9607 H             1 Polymer 
     860 H           -7.1198    21.5519    17.8724 H             1 Polymer 
     861 H           -8.7799    20.8368    18.1368 H             1 Polymer 
     862 H           -7.5609    15.3715    14.2090 H             1 Polymer 
     863 H           -7.4954    15.1493    14.2313 H             1 Polymer 
     864 H           -9.8533    15.8521    14.8261 H             1 Polymer 
     865 H           -9.6849    14.9866    16.4542 H             1 Polymer 
     866 H          -10.4605    14.3162    13.5761 H             1 Polymer 
     867 H           -9.8874    13.0449    14.4916 H             1 Polymer 
     868 H          -12.3808    14.7493    14.7175 H             1 Polymer 
     869 H          -12.2991    13.0835    14.1434 H             1 Polymer 
     870 H          -12.6008    13.8370    17.0838 H             1 Polymer 
     871 H          -13.8244    13.5404    15.8110 H             1 Polymer 
     872 H          -13.4116    11.1419    15.7031 H             1 Polymer 
     873 H          -12.3587    11.2711    17.1859 H             1 Polymer 
     874 H          -13.9691    11.6843    17.2857 H             1 Polymer 
     875 H           13.8943    -0.6353    11.4675 H             1 Polymer 
     876 H          -18.2525    14.4727     5.6824 H             1 Polymer 
@<TRIPOS>BOND
       1        2        1 1
       2        9        1 1
       3      170        1 1
       4      237        1 1
       5        3        2 1
       6       18        2 1
       7        4        3 1
       8       16        3 1
       9        5        4 1
      10        9        4 1
      11        6        5 1
      12       19        5 1
      13        7        6 1
      14       12        6 1
      15        8        7 1
      16       10        7 1
      17        9        8 1
      18       20        8 1
      19       11       10 1
      20       15       10 1
      21       12       11 1
      22       13       11 1
      23      304       12 1
      24      371       12 1
      25       14       13 1
      26       21       13 1
      27       15       14 1
      28      875       14 1
      29       17       16 1
      30       18       17 1
      31       32       17 1
      32       22       18 1
      33       24       23 1
      34       30       23 1
      35       36       23 1
      36      103       23 1
      37       25       24 1
      38       28       24 1
      39       26       25 1
      40       29       25 1
      41       27       26 1
      42       28       27 1
      43      451       27 1
      44       34       28 1
      45       30       29 1
      46       33       29 1
      47       31       30 1
      48       32       31 1
      49       35       31 1
      50       33       32 1
      51       37       36 1
      52       58       36 1
      53       59       36 1
      54       38       37 1
      55       60       37 1
      56       61       37 1
      57       39       38 1
      58       62       38 1
      59       63       38 1
      60       40       39 1
      61       64       39 1
      62       65       39 1
      63       41       40 1
      64       66       40 1
      65       67       40 1
      66       42       41 1
      67       68       41 1
      68       69       41 1
      69       43       42 1
      70       70       42 1
      71       71       42 1
      72       44       43 1
      73       72       43 1
      74       73       43 1
      75       45       44 1
      76       74       44 1
      77       75       44 1
      78       46       45 1
      79       76       45 1
      80       77       45 1
      81       47       46 1
      82       78       46 1
      83       79       46 1
      84       48       47 1
      85       52       47 1
      86       80       47 1
      87       49       48 1
      88       81       48 1
      89       82       48 1
      90       50       49 1
      91       83       49 1
      92       84       49 1
      93       51       50 1
      94       85       50 1
      95       86       50 1
      96       87       51 1
      97       88       51 1
      98       89       51 1
      99       53       52 1
     100       90       52 1
     101       91       52 1
     102       54       53 1
     103       92       53 1
     104       93       53 1
     105       55       54 1
     106       94       54 1
     107       95       54 1
     108       56       55 1
     109       96       55 1
     110       97       55 1
     111       57       56 1
     112       98       56 1
     113       99       56 1
     114      100       57 1
     115      101       57 1
     116      102       57 1
     117      104      103 1
     118      125      103 1
     119      126      103 1
     120      105      104 1
     121      127      104 1
     122      128      104 1
     123      106      105 1
     124      129      105 1
     125      130      105 1
     126      107      106 1
     127      131      106 1
     128      132      106 1
     129      108      107 1
     130      133      107 1
     131      134      107 1
     132      109      108 1
     133      135      108 1
     134      136      108 1
     135      110      109 1
     136      137      109 1
     137      138      109 1
     138      111      110 1
     139      139      110 1
     140      140      110 1
     141      112      111 1
     142      141      111 1
     143      142      111 1
     144      113      112 1
     145      143      112 1
     146      144      112 1
     147      114      113 1
     148      145      113 1
     149      146      113 1
     150      115      114 1
     151      119      114 1
     152      147      114 1
     153      116      115 1
     154      148      115 1
     155      149      115 1
     156      117      116 1
     157      150      116 1
     158      151      116 1
     159      118      117 1
     160      152      117 1
     161      153      117 1
     162      154      118 1
     163      155      118 1
     164      156      118 1
     165      120      119 1
     166      157      119 1
     167      158      119 1
     168      121      120 1
     169      159      120 1
     170      160      120 1
     171      122      121 1
     172      161      121 1
     173      162      121 1
     174      123      122 1
     175      163      122 1
     176      164      122 1
     177      124      123 1
     178      165      123 1
     179      166      123 1
     180      167      124 1
     181      168      124 1
     182      169      124 1
     183      171      170 1
     184      192      170 1
     185      193      170 1
     186      172      171 1
     187      194      171 1
     188      195      171 1
     189      173      172 1
     190      196      172 1
     191      197      172 1
     192      174      173 1
     193      198      173 1
     194      199      173 1
     195      175      174 1
     196      200      174 1
     197      201      174 1
     198      176      175 1
     199      202      175 1
     200      203      175 1
     201      177      176 1
     202      204      176 1
     203      205      176 1
     204      178      177 1
     205      206      177 1
     206      207      177 1
     207      179      178 1
     208      208      178 1
     209      209      178 1
     210      180      179 1
     211      210      179 1
     212      211      179 1
     213      181      180 1
     214      212      180 1
     215      213      180 1
     216      182      181 1
     217      186      181 1
     218      214      181 1
     219      183      182 1
     220      215      182 1
     221      216      182 1
     222      184      183 1
     223      217      183 1
     224      218      183 1
     225      185      184 1
     226      219      184 1
     227      220      184 1
     228      221      185 1
     229      222      185 1
     230      223      185 1
     231      187      186 1
     232      224      186 1
     233      225      186 1
     234      188      187 1
     235      226      187 1
     236      227      187 1
     237      189      188 1
     238      228      188 1
     239      229      188 1
     240      190      189 1
     241      230      189 1
     242      231      189 1
     243      191      190 1
     244      232      190 1
     245      233      190 1
     246      234      191 1
     247      235      191 1
     248      236      191 1
     249      238      237 1
     250      259      237 1
     251      260      237 1
     252      239      238 1
     253      261      238 1
     254      262      238 1
     255      240      239 1
     256      263      239 1
     257      264      239 1
     258      241      240 1
     259      265      240 1
     260      266      240 1
     261      242      241 1
     262      267      241 1
     263      268      241 1
     264      243      242 1
     265      269      242 1
     266      270      242 1
     267      244      243 1
     268      271      243 1
     269      272      243 1
     270      245      244 1
     271      273      244 1
     272      274      244 1
     273      246      245 1
     274      275      245 1
     275      276      245 1
     276      247      246 1
     277      277      246 1
     278      278      246 1
     279      248      247 1
     280      279      247 1
     281      280      247 1
     282      249      248 1
     283      253      248 1
     284      281      248 1
     285      250      249 1
     286      282      249 1
     287      283      249 1
     288      251      250 1
     289      284      250 1
     290      285      250 1
     291      252      251 1
     292      286      251 1
     293      287      251 1
     294      288      252 1
     295      289      252 1
     296      290      252 1
     297      254      253 1
     298      291      253 1
     299      292      253 1
     300      255      254 1
     301      293      254 1
     302      294      254 1
     303      256      255 1
     304      295      255 1
     305      296      255 1
     306      257      256 1
     307      297      256 1
     308      298      256 1
     309      258      257 1
     310      299      257 1
     311      300      257 1
     312      301      258 1
     313      302      258 1
     314      303      258 1
     315      305      304 1
     316      326      304 1
     317      327      304 1
     318      306      305 1
     319      328      305 1
     320      329      305 1
     321      307      306 1
     322      330      306 1
     323      331      306 1
     324      308      307 1
     325      332      307 1
     326      333      307 1
     327      309      308 1
     328      334      308 1
     329      335      308 1
     330      310      309 1
     331      336      309 1
     332      337      309 1
     333      311      310 1
     334      338      310 1
     335      339      310 1
     336      312      311 1
     337      340      311 1
     338      341      311 1
     339      313      312 1
     340      342      312 1
     341      343      312 1
     342      314      313 1
     343      344      313 1
     344      345      313 1
     345      315      314 1
     346      346      314 1
     347      347      314 1
     348      316      315 1
     349      320      315 1
     350      348      315 1
     351      317      316 1
     352      349      316 1
     353      350      316 1
     354      318      317 1
     355      351      317 1
     356      352      317 1
     357      319      318 1
     358      353      318 1
     359      354      318 1
     360      355      319 1
     361      356      319 1
     362      357      319 1
     363      321      320 1
     364      358      320 1
     365      359      320 1
     366      322      321 1
     367      360      321 1
     368      361      321 1
     369      323      322 1
     370      362      322 1
     371      363      322 1
     372      324      323 1
     373      364      323 1
     374      365      323 1
     375      325      324 1
     376      366      324 1
     377      367      324 1
     378      368      325 1
     379      369      325 1
     380      370      325 1
     381      372      371 1
     382      393      371 1
     383      394      371 1
     384      373      372 1
     385      395      372 1
     386      396      372 1
     387      374      373 1
     388      397      373 1
     389      398      373 1
     390      375      374 1
     391      399      374 1
     392      400      374 1
     393      376      375 1
     394      401      375 1
     395      402      375 1
     396      377      376 1
     397      403      376 1
     398      404      376 1
     399      378      377 1
     400      405      377 1
     401      406      377 1
     402      379      378 1
     403      407      378 1
     404      408      378 1
     405      380      379 1
     406      409      379 1
     407      410      379 1
     408      381      380 1
     409      411      380 1
     410      412      380 1
     411      382      381 1
     412      413      381 1
     413      414      381 1
     414      383      382 1
     415      387      382 1
     416      415      382 1
     417      384      383 1
     418      416      383 1
     419      417      383 1
     420      385      384 1
     421      418      384 1
     422      419      384 1
     423      386      385 1
     424      420      385 1
     425      421      385 1
     426      422      386 1
     427      423      386 1
     428      424      386 1
     429      388      387 1
     430      425      387 1
     431      426      387 1
     432      389      388 1
     433      427      388 1
     434      428      388 1
     435      390      389 1
     436      429      389 1
     437      430      389 1
     438      391      390 1
     439      431      390 1
     440      432      390 1
     441      392      391 1
     442      433      391 1
     443      434      391 1
     444      435      392 1
     445      436      392 1
     446      437      392 1
     447      439      438 1
     448      446      438 1
     449      607      438 1
     450      674      438 1
     451      440      439 1
     452      455      439 1
     453      441      440 1
     454      453      440 1
     455      442      441 1
     456      446      441 1
     457      443      442 1
     458      456      442 1
     459      444      443 1
     460      449      443 1
     461      445      444 1
     462      447      444 1
     463      446      445 1
     464      457      445 1
     465      448      447 1
     466      452      447 1
     467      449      448 1
     468      450      448 1
     469      741      449 1
     470      808      449 1
     471      451      450 1
     472      458      450 1
     473      452      451 1
     474      454      453 1
     475      455      454 1
     476      469      454 1
     477      459      455 1
     478      461      460 1
     479      467      460 1
     480      473      460 1
     481      540      460 1
     482      462      461 1
     483      465      461 1
     484      463      462 1
     485      466      462 1
     486      464      463 1
     487      465      464 1
     488      876      464 1
     489      471      465 1
     490      467      466 1
     491      470      466 1
     492      468      467 1
     493      469      468 1
     494      472      468 1
     495      470      469 1
     496      474      473 1
     497      495      473 1
     498      496      473 1
     499      475      474 1
     500      497      474 1
     501      498      474 1
     502      476      475 1
     503      499      475 1
     504      500      475 1
     505      477      476 1
     506      501      476 1
     507      502      476 1
     508      478      477 1
     509      503      477 1
     510      504      477 1
     511      479      478 1
     512      505      478 1
     513      506      478 1
     514      480      479 1
     515      507      479 1
     516      508      479 1
     517      481      480 1
     518      509      480 1
     519      510      480 1
     520      482      481 1
     521      511      481 1
     522      512      481 1
     523      483      482 1
     524      513      482 1
     525      514      482 1
     526      484      483 1
     527      515      483 1
     528      516      483 1
     529      485      484 1
     530      489      484 1
     531      517      484 1
     532      486      485 1
     533      518      485 1
     534      519      485 1
     535      487      486 1
     536      520      486 1
     537      521      486 1
     538      488      487 1
     539      522      487 1
     540      523      487 1
     541      524      488 1
     542      525      488 1
     543      526      488 1
     544      490      489 1
     545      527      489 1
     546      528      489 1
     547      491      490 1
     548      529      490 1
     549      530      490 1
     550      492      491 1
     551      531      491 1
     552      532      491 1
     553      493      492 1
     554      533      492 1
     555      534      492 1
     556      494      493 1
     557      535      493 1
     558      536      493 1
     559      537      494 1
     560      538      494 1
     561      539      494 1
     562      541      540 1
     563      562      540 1
     564      563      540 1
     565      542      541 1
     566      564      541 1
     567      565      541 1
     568      543      542 1
     569      566      542 1
     570      567      542 1
     571      544      543 1
     572      568      543 1
     573      569      543 1
     574      545      544 1
     575      570      544 1
     576      571      544 1
     577      546      545 1
     578      572      545 1
     579      573      545 1
     580      547      546 1
     581      574      546 1
     582      575      546 1
     583      548      547 1
     584      576      547 1
     585      577      547 1
     586      549      548 1
     587      578      548 1
     588      579      548 1
     589      550      549 1
     590      580      549 1
     591      581      549 1
     592      551      550 1
     593      582      550 1
     594      583      550 1
     595      552      551 1
     596      556      551 1
     597      584      551 1
     598      553      552 1
     599      585      552 1
     600      586      552 1
     601      554      553 1
     602      587      553 1
     603      588      553 1
     604      555      554 1
     605      589      554 1
     606      590      554 1
     607      591      555 1
     608      592      555 1
     609      593      555 1
     610      557      556 1
     611      594      556 1
     612      595      556 1
     613      558      557 1
     614      596      557 1
     615      597      557 1
     616      559      558 1
     617      598      558 1
     618      599      558 1
     619      560      559 1
     620      600      559 1
     621      601      559 1
     622      561      560 1
     623      602      560 1
     624      603      560 1
     625      604      561 1
     626      605      561 1
     627      606      561 1
     628      608      607 1
     629      629      607 1
     630      630      607 1
     631      609      608 1
     632      631      608 1
     633      632      608 1
     634      610      609 1
     635      633      609 1
     636      634      609 1
     637      611      610 1
     638      635      610 1
     639      636      610 1
     640      612      611 1
     641      637      611 1
     642      638      611 1
     643      613      612 1
     644      639      612 1
     645      640      612 1
     646      614      613 1
     647      641      613 1
     648      642      613 1
     649      615      614 1
     650      643      614 1
     651      644      614 1
     652      616      615 1
     653      645      615 1
     654      646      615 1
     655      617      616 1
     656      647      616 1
     657      648      616 1
     658      618      617 1
     659      649      617 1
     660      650      617 1
     661      619      618 1
     662      623      618 1
     663      651      618 1
     664      620      619 1
     665      652      619 1
     666      653      619 1
     667      621      620 1
     668      654      620 1
     669      655      620 1
     670      622      621 1
     671      656      621 1
     672      657      621 1
     673      658      622 1
     674      659      622 1
     675      660      622 1
     676      624      623 1
     677      661      623 1
     678      662      623 1
     679      625      624 1
     680      663      624 1
     681      664      624 1
     682      626      625 1
     683      665      625 1
     684      666      625 1
     685      627      626 1
     686      667      626 1
     687      668      626 1
     688      628      627 1
     689      669      627 1
     690      670      627 1
     691      671      628 1
     692      672      628 1
     693      673      628 1
     694      675      674 1
     695      696      674 1
     696      697      674 1
     697      676      675 1
     698      698      675 1
     699      699      675 1
     700      677      676 1
     701      700      676 1
     702      701      676 1
     703      678      677 1
     704      702      677 1
     705      703      677 1
     706      679      678 1
     707      704      678 1
     708      705      678 1
     709      680      679 1
     710      706      679 1
     711      707      679 1
     712      681      680 1
     713      708      680 1
     714      709      680 1
     715      682      681 1
     716      710      681 1
     717      711      681 1
     718      683      682 1
     719      712      682 1
     720      713      682 1
     721      684      683 1
     722      714      683 1
     723      715      683 1
     724      685      684 1
     725      716      684 1
     726      717      684 1
     727      686      685 1
     728      690      685 1
     729      718      685 1
     730      687      686 1
     731      719      686 1
     732      720      686 1
     733      688      687 1
     734      721      687 1
     735      722      687 1
     736      689      688 1
     737      723      688 1
     738      724      688 1
     739      725      689 1
     740      726      689 1
     741      727      689 1
     742      691      690 1
     743      728      690 1
     744      729      690 1
     745      692      691 1
     746      730      691 1
     747      731      691 1
     748      693      692 1
     749      732      692 1
     750      733      692 1
     751      694      693 1
     752      734      693 1
     753      735      693 1
     754      695      694 1
     755      736      694 1
     756      737      694 1
     757      738      695 1
     758      739      695 1
     759      740      695 1
     760      742      741 1
     761      763      741 1
     762      764      741 1
     763      743      742 1
     764      765      742 1
     765      766      742 1
     766      744      743 1
     767      767      743 1
     768      768      743 1
     769      745      744 1
     770      769      744 1
     771      770      744 1
     772      746      745 1
     773      771      745 1
     774      772      745 1
     775      747      746 1
     776      773      746 1
     777      774      746 1
     778      748      747 1
     779      775      747 1
     780      776      747 1
     781      749      748 1
     782      777      748 1
     783      778      748 1
     784      750      749 1
     785      779      749 1
     786      780      749 1
     787      751      750 1
     788      781      750 1
     789      782      750 1
     790      752      751 1
     791      783      751 1
     792      784      751 1
     793      753      752 1
     794      757      752 1
     795      785      752 1
     796      754      753 1
     797      786      753 1
     798      787      753 1
     799      755      754 1
     800      788      754 1
     801      789      754 1
     802      756      755 1
     803      790      755 1
     804      791      755 1
     805      792      756 1
     806      793      756 1
     807      794      756 1
     808      758      757 1
     809      795      757 1
     810      796      757 1
     811      759      758 1
     812      797      758 1
     813      798      758 1
     814      760      759 1
     815      799      759 1
     816      800      759 1
     817      761      760 1
     818      801      760 1
     819      802      760 1
     820      762      761 1
     821      803      761 1
     822      804      761 1
     823      805      762 1
     824      806      762 1
     825      807      762 1
     826      809      808 1
     827      830      808 1
     828      831      808 1
     829      810      809 1
     830      832      809 1
     831      833      809 1
     832      811      810 1
     833      834      810 1
     834      835      810 1
     835      812      811 1
     836      836      811 1
     837      837      811 1
     838      813      812 1
     839      838      812 1
     840      839      812 1
     841      814      813 1
     842      840      813 1
     843      841      813 1
     844      815      814 1
     845      842      814 1
     846      843      814 1
     847      816      815 1
     848      844      815 1
     849      845      815 1
     850      817      816 1
     851      846      816 1
     852      847      816 1
     853      818      817 1
     854      848      817 1
     855      849      817 1
     856      819      818 1
     857      850      818 1
     858      851      818 1
     859      820      819 1
     860      824      819 1
     861      852      819 1
     862      821      820 1
     863      853      820 1
     864      854      820 1
     865      822      821 1
     866      855      821 1
     867      856      821 1
     868      823      822 1
     869      857      822 1
     870      858      822 1
     871      859      823 1
     872      860      823 1
     873      861      823 1
     874      825      824 1
     875      862      824 1
     876      863      824 1
     877      826      825 1
     878      864      825 1
     879      865      825 1
     880      827      826 1
     881      866      826 1
     882      867      826 1
     883      828      827 1
     884      868      827 1
     885      869      827 1
     886      829      828 1
     887      870      828 1
     888      871      828 1
     889      872      829 1
     890      873      829 1
     891      874      829 1
@<TRIPOS>SUBSTRUCTURE
       1 Polymer         1 RESIDUE    0 **** ROOT      0
