@<TRIPOS>MOLECULE
RES
604 617 1 0 1
SMALL
NO_CHARGES
@<TRIPOS>CRYSIN
   37.7545    30.1129    27.9588    90.0000    90.0000    90.0000 1 1
@<TRIPOS>ATOM
       1 C0          11.9209     9.0959    10.9090 C0            1 RES     
       2 C1          13.0688     9.8743    10.2363 C1            1 RES     
       3 C1          12.6980    11.1305     9.8227 C1            1 RES     
       4 C1          11.2281    11.3193    10.0897 C1            1 RES     
       5 C1          10.1055    12.1093     9.5674 C1            1 RES     
       6 C1           8.7485    11.6526     9.9358 C1            1 RES     
       7 C1           8.6597    10.6960    10.8840 C1            1 RES     
       8 C1           9.6818    10.1649    11.5317 C1            1 RES     
       9 C1          10.9512    10.3137    11.0184 C1            1 RES     
      10 C1           7.5142     9.8633    10.6743 C1            1 RES     
      11 C1           6.9837    10.1929     9.5302 C1            1 RES     
      12 C0           7.2971    11.6897     9.2994 C0            1 RES     
      13 C1           5.9607     9.2079     9.2114 C1            1 RES     
      14 C1           5.8731     8.1687    10.1006 C1            1 RES     
      15 S2           6.9502     8.3691    11.4802 S2            1 RES     
      16 S2          14.1456    11.9797     9.4423 S2            1 RES     
      17 C1          15.2821    10.7200     9.8650 C1            1 RES     
      18 C1          14.4798     9.6291    10.2429 C1            1 RES     
      19 H3          10.2749    12.7997     8.7524 H3            1 RES     
      20 H3           9.4310     9.3703    12.1000 H3            1 RES     
      21 H3           5.1936     9.3542     8.5435 H3            1 RES     
      22 H3          14.9144     8.7331    10.6401 H3            1 RES     
      23 C1          18.9149    12.0856    10.4734 C1            1 RES     
      24 F4          19.4038    13.3091    10.7500 F4            1 RES     
      25 C1          17.5059    11.9831    10.2383 C1            1 RES     
      26 C1          16.8337    10.7712    10.0286 C1            1 RES     
      27 C1          17.6785     9.6106    10.1027 C1            1 RES     
      28 N5          17.2272     8.3429     9.9980 N5            1 RES     
      29 S2          18.5920     7.4369    10.1458 S2            1 RES     
      30 N5          19.7939     8.5354    10.3049 N5            1 RES     
      31 C1          19.1288     9.7245    10.2688 C1            1 RES     
      32 C1          19.7905    10.9422    10.4490 C1            1 RES     
      33 H3          16.9236    12.9015    10.2598 H3            1 RES     
      34 C0          24.3657    12.6857    12.4771 C0            1 RES     
      35 C1          23.3863    11.9035    11.5664 C1            1 RES     
      36 C1          23.8440    10.6565    11.2243 C1            1 RES     
      37 C1          25.2211    10.4688    11.7552 C1            1 RES     
      38 C1          26.3619     9.6179    11.4496 C1            1 RES     
      39 C1          27.6548    10.0131    12.0162 C1            1 RES     
      40 C1          27.6456    11.0452    12.9026 C1            1 RES     
      41 C1          26.5596    11.6395    13.3705 C1            1 RES     
      42 C1          25.3619    11.4961    12.6928 C1            1 RES     
      43 C1          28.9064    11.7209    12.9414 C1            1 RES     
      44 C1          29.7403    11.1444    12.0708 C1            1 RES     
      45 C0          29.1780     9.7419    11.6892 C0            1 RES     
      46 C1          30.9798    11.8112    12.0934 C1            1 RES     
      47 C1          31.0521    12.9178    12.9292 C1            1 RES     
      48 S2          29.5493    13.1149    13.6609 S2            1 RES     
      49 S2          22.5552     9.8053    10.4927 S2            1 RES     
      50 C1          21.3338    11.0338    10.6813 C1            1 RES     
      51 C1          22.0088    12.1270    11.2580 C1            1 RES     
      52 H3          26.2819     8.8786    10.6675 H3            1 RES     
      53 H3          26.7913    12.4029    14.0054 H3            1 RES     
      54 H3          31.8495    11.4637    11.6445 H3            1 RES     
      55 H3          21.4914    13.0151    11.5523 H3            1 RES     
      56 C1          33.5428    12.9365    13.3833 C1            1 RES     
      57 F4          33.6282    11.6094    13.1350 F4            1 RES     
      58 C1          34.7206    13.5769    13.7916 C1            1 RES     
      59 C1          34.7239    14.9330    14.1061 C1            1 RES     
      60 C1          33.5322    15.6500    14.0176 C1            1 RES     
      61 N5          33.4450    16.9724    14.2802 N5            1 RES     
      62 S2          31.8450    17.2813    14.0030 S2            1 RES     
      63 N5          31.2268    15.8110    13.5652 N5            1 RES     
      64 C1          32.3193    15.0032    13.6205 C1            1 RES     
      65 C1          32.3061    13.6376    13.2940 C1            1 RES     
      66 H3          35.6382    13.0072    13.8740 H3            1 RES     
      67 C0          12.6120     7.9774    11.7873 C0            1 RES     
      68 C0          13.1533     6.6453    11.0482 C0            1 RES     
      69 C0          12.1097     5.5431    10.5465 C0            1 RES     
      70 C0          11.5112     5.3987     9.0623 C0            1 RES     
      71 C0          10.7298     6.3281     7.9869 C0            1 RES     
      72 C0          11.5795     7.4361     7.2147 C0            1 RES     
      73 C0          11.3742     7.9141     5.7197 C0            1 RES     
      74 C0          12.6334     8.7310     5.2723 C0            1 RES     
      75 C0          13.1646     8.6010     3.8032 C0            1 RES     
      76 C0          13.5946     7.1527     3.4506 C0            1 RES     
      77 C0          14.5196     6.8966     2.2124 C0            1 RES     
      78 C0          16.0430     6.6310     2.5293 C0            1 RES     
      79 C0          16.8022     5.9115     1.3741 C0            1 RES     
      80 C0          16.3272     4.4529     1.1731 C0            1 RES     
      81 C0          17.2678     3.6657     0.2510 C0            1 RES     
      82 C0          16.8339     2.2038     0.1504 C0            1 RES     
      83 C0          16.7884     7.9043     3.0367 C0            1 RES     
      84 C0          18.2570     7.6512     3.5052 C0            1 RES     
      85 C0          18.9121     8.9033     4.1266 C0            1 RES     
      86 C0          20.4453     8.7748     4.3195 C0            1 RES     
      87 C0          20.9361     7.7452     5.3558 C0            1 RES     
      88 C0          20.6960     8.1758     6.8045 C0            1 RES     
      89 H6          13.3861     8.4675    12.3441 H6            1 RES     
      90 H6          11.9855     7.5895    12.5560 H6            1 RES     
      91 H6          13.8942     6.8328    10.2475 H6            1 RES     
      92 H6          13.6983     6.1260    11.8610 H6            1 RES     
      93 H6          12.6537     4.5771    10.6601 H6            1 RES     
      94 H6          11.3216     5.4291    11.2977 H6            1 RES     
      95 H6          12.3753     5.0660     8.5074 H6            1 RES     
      96 H6          10.8369     4.5146     9.1828 H6            1 RES     
      97 H6          10.5080     5.5646     7.2866 H6            1 RES     
      98 H6           9.7336     6.7055     8.2879 H6            1 RES     
      99 H6          12.5141     6.9630     7.2157 H6            1 RES     
     100 H6          11.7367     8.3688     7.7675 H6            1 RES     
     101 H6          10.4450     8.5043     5.5817 H6            1 RES     
     102 H6          11.2890     7.0970     5.0003 H6            1 RES     
     103 H6          13.4995     8.3979     5.8759 H6            1 RES     
     104 H6          12.4555     9.7918     5.5422 H6            1 RES     
     105 H6          12.4224     8.9649     3.0598 H6            1 RES     
     106 H6          14.0585     9.2541     3.7469 H6            1 RES     
     107 H6          14.0810     6.6869     4.3188 H6            1 RES     
     108 H6          12.6410     6.6108     3.2741 H6            1 RES     
     109 H6          14.1500     5.9301     1.8212 H6            1 RES     
     110 H6          14.3533     7.6378     1.4026 H6            1 RES     
     111 H6          16.0790     5.8797     3.3244 H6            1 RES     
     112 H6          17.8608     5.7979     1.6720 H6            1 RES     
     113 H6          16.7693     6.4976     0.4321 H6            1 RES     
     114 H6          15.2991     4.4202     0.7620 H6            1 RES     
     115 H6          16.3342     3.9382     2.1613 H6            1 RES     
     116 H6          17.2757     4.1237    -0.7602 H6            1 RES     
     117 H6          18.3014     3.6881     0.6633 H6            1 RES     
     118 H6          17.5326     1.6495    -0.5108 H6            1 RES     
     119 H6          15.8082     2.1316    -0.2681 H6            1 RES     
     120 H6          16.8499     1.7260     1.1548 H6            1 RES     
     121 H6          16.7866     8.6810     2.2427 H6            1 RES     
     122 H6          16.2197     8.2979     3.8935 H6            1 RES     
     123 H6          18.8711     7.3777     2.6255 H6            1 RES     
     124 H6          18.2925     6.8167     4.2348 H6            1 RES     
     125 H6          18.7665     9.7229     3.3974 H6            1 RES     
     126 H6          18.4125     9.1891     5.0761 H6            1 RES     
     127 H6          20.8798     8.5015     3.3336 H6            1 RES     
     128 H6          20.8645     9.7681     4.5952 H6            1 RES     
     129 H6          20.4885     6.7493     5.1588 H6            1 RES     
     130 H6          22.0389     7.6467     5.2400 H6            1 RES     
     131 H6          21.2249     9.1304     7.0140 H6            1 RES     
     132 H6          19.6226     8.3138     7.0219 H6            1 RES     
     133 H6          21.1039     7.4008     7.4899 H6            1 RES     
     134 C0          10.9150     8.2163    10.1864 C0            1 RES     
     135 C0           9.8473     7.4201    11.1101 C0            1 RES     
     136 C0           9.6650     7.0836    12.6976 C0            1 RES     
     137 C0          10.0575     7.8694    14.0685 C0            1 RES     
     138 C0           9.9160     9.4298    14.3922 C0            1 RES     
     139 C0          11.2237    10.2389    14.0611 C0            1 RES     
     140 C0          11.2358    11.8023    13.7624 C0            1 RES     
     141 C0          12.7065    12.2914    13.5678 C0            1 RES     
     142 C0          13.1171    13.7978    13.7369 C0            1 RES     
     143 C0          13.5054    14.6035    12.4678 C0            1 RES     
     144 C0          14.1566    16.0223    12.7348 C0            1 RES     
     145 C0          15.7210    16.1474    12.9632 C0            1 RES     
     146 C0          16.1996    17.6301    13.0707 C0            1 RES     
     147 C0          15.8911    18.6064    11.9335 C0            1 RES     
     148 C0          16.6281    19.9337    12.2277 C0            1 RES     
     149 C0          16.3677    21.0020    11.1771 C0            1 RES     
     150 C0          16.2351    15.4202    14.2380 C0            1 RES     
     151 C0          17.7748    15.4687    14.4400 C0            1 RES     
     152 C0          18.2043    14.7139    15.7000 C0            1 RES     
     153 C0          19.7144    14.7198    15.9514 C0            1 RES     
     154 C0          20.5392    14.1366    14.8059 C0            1 RES     
     155 C0          20.1840    12.6914    14.4789 C0            1 RES     
     156 H6          10.3348     8.7229     9.3736 H6            1 RES     
     157 H6          11.5821     7.6444     9.6511 H6            1 RES     
     158 H6           9.2538     6.7124    10.4955 H6            1 RES     
     159 H6           9.2538     6.7124    10.4955 H6            1 RES     
     160 H6           8.5760     6.9549    12.7970 H6            1 RES     
     161 H6          10.0051     6.0429    12.8564 H6            1 RES     
     162 H6          11.0594     7.5570    14.4203 H6            1 RES     
     163 H6           9.3854     7.3751    14.8049 H6            1 RES     
     164 H6           8.9665     9.8555    14.0092 H6            1 RES     
     165 H6           9.7880     9.5539    15.4891 H6            1 RES     
     166 H6          11.7212     9.7807    13.2365 H6            1 RES     
     167 H6          11.9024     9.9861    14.8830 H6            1 RES     
     168 H6          10.7835    12.3374    14.5917 H6            1 RES     
     169 H6          10.6490    12.0918    12.8762 H6            1 RES     
     170 H6          13.2125    11.8169    12.6984 H6            1 RES     
     171 H6          13.1583    11.8489    14.4451 H6            1 RES     
     172 H6          12.3821    14.3382    14.3631 H6            1 RES     
     173 H6          14.0362    13.7708    14.3273 H6            1 RES     
     174 H6          14.1933    14.0250    11.8134 H6            1 RES     
     175 H6          12.5546    14.7508    11.9123 H6            1 RES     
     176 H6          13.9830    16.5834    11.7923 H6            1 RES     
     177 H6          13.5921    16.5468    13.5349 H6            1 RES     
     178 H6          16.2171    15.6895    12.0762 H6            1 RES     
     179 H6          17.3042    17.6217    13.0981 H6            1 RES     
     180 H6          15.8167    18.0663    14.0200 H6            1 RES     
     181 H6          14.7972    18.7830    11.8725 H6            1 RES     
     182 H6          16.2570    18.1909    10.9685 H6            1 RES     
     183 H6          16.3106    20.3305    13.2177 H6            1 RES     
     184 H6          17.7260    19.7492    12.2669 H6            1 RES     
     185 H6          16.9364    21.9191    11.4450 H6            1 RES     
     186 H6          15.2868    21.2492    11.1469 H6            1 RES     
     187 H6          16.7052    20.6530    10.1792 H6            1 RES     
     188 H6          15.7362    15.8432    15.1366 H6            1 RES     
     189 H6          15.9786    14.3679    14.1430 H6            1 RES     
     190 H6          18.1526    16.4971    14.5849 H6            1 RES     
     191 H6          18.2466    15.0220    13.5386 H6            1 RES     
     192 H6          17.7021    15.1507    16.5881 H6            1 RES     
     193 H6          17.8966    13.6788    15.6045 H6            1 RES     
     194 H6          20.0575    15.7609    16.1295 H6            1 RES     
     195 H6          19.9199    14.1272    16.8710 H6            1 RES     
     196 H6          20.4120    14.7426    13.8907 H6            1 RES     
     197 H6          21.5916    14.1893    15.1474 H6            1 RES     
     198 H6          20.7697    12.2448    13.6613 H6            1 RES     
     199 H6          19.1396    12.6178    14.1271 H6            1 RES     
     200 H6          20.3858    12.0983    15.3837 H6            1 RES     
     201 C0           7.3127    12.6179     8.0519 C0            1 RES     
     202 C0           7.5600    14.1633     8.4096 C0            1 RES     
     203 C0           6.4269    15.2283     8.8123 C0            1 RES     
     204 C0           5.5255    15.4207    10.1181 C0            1 RES     
     205 C0           6.1493    15.6475    11.5488 C0            1 RES     
     206 C0           6.7247    14.3978    12.2556 C0            1 RES     
     207 C0           7.1917    14.5751    13.7181 C0            1 RES     
     208 C0           7.8703    13.2651    14.2189 C0            1 RES     
     209 C0           8.3970    13.2561    15.6837 C0            1 RES     
     210 C0           9.2852    14.4708    15.9816 C0            1 RES     
     211 C0           9.9314    14.5415    17.3926 C0            1 RES     
     212 C0          11.4618    14.2173    17.4744 C0            1 RES     
     213 C0          12.1333    14.8438    18.7357 C0            1 RES     
     214 C0          11.9233    16.3543    18.9137 C0            1 RES     
     215 C0          12.8162    16.8951    20.0343 C0            1 RES     
     216 C0          12.5630    18.3805    20.2576 C0            1 RES     
     217 C0          11.8079    12.6945    17.4090 C0            1 RES     
     218 C0          13.3347    12.4812    17.2913 C0            1 RES     
     219 C0          13.8048    11.0474    17.0155 C0            1 RES     
     220 C0          15.3356    10.9541    17.0106 C0            1 RES     
     221 C0          16.1196    11.9420    16.1098 C0            1 RES     
     222 C0          16.1828    11.6787    14.5974 C0            1 RES     
     223 H6           8.1395    12.2592     7.4013 H6            1 RES     
     224 H6           6.3978    12.5676     7.4654 H6            1 RES     
     225 H6           8.4095    14.2640     9.1122 H6            1 RES     
     226 H6           7.9166    14.5768     7.4399 H6            1 RES     
     227 H6           6.9512    16.2049     8.7357 H6            1 RES     
     228 H6           5.6948    15.1962     7.9745 H6            1 RES     
     229 H6           4.7194    14.6578    10.1867 H6            1 RES     
     230 H6           4.9487    16.3490     9.9115 H6            1 RES     
     231 H6           6.9074    16.4544    11.5026 H6            1 RES     
     232 H6           5.3165    15.9991    12.2010 H6            1 RES     
     233 H6           7.5849    14.0383    11.6535 H6            1 RES     
     234 H6           5.9127    13.6484    12.3207 H6            1 RES     
     235 H6           6.3221    14.8275    14.3651 H6            1 RES     
     236 H6           7.9241    15.4070    13.7517 H6            1 RES     
     237 H6           8.7283    13.0797    13.5463 H6            1 RES     
     238 H6           7.1688    12.4083    14.1080 H6            1 RES     
     239 H6           7.5390    13.2648    16.3903 H6            1 RES     
     240 H6           8.9499    12.3090    15.8536 H6            1 RES     
     241 H6          10.0547    14.6350    15.1984 H6            1 RES     
     242 H6           8.5759    15.3258    15.9188 H6            1 RES     
     243 H6           9.8740    15.6266    17.5796 H6            1 RES     
     244 H6           9.3195    14.0648    18.1876 H6            1 RES     
     245 H6          11.9244    14.7274    16.6017 H6            1 RES     
     246 H6          13.2291    14.7292    18.6332 H6            1 RES     
     247 H6          11.7993    14.3141    19.6533 H6            1 RES     
     248 H6          10.8683    16.5607    19.1863 H6            1 RES     
     249 H6          12.1781    16.8808    17.9668 H6            1 RES     
     250 H6          12.6079    16.3477    20.9788 H6            1 RES     
     251 H6          13.8853    16.7456    19.7629 H6            1 RES     
     252 H6          13.2257    18.7521    21.0664 H6            1 RES     
     253 H6          11.5058    18.5434    20.5578 H6            1 RES     
     254 H6          12.7717    18.9524    19.3284 H6            1 RES     
     255 H6          11.4140    12.1547    18.2953 H6            1 RES     
     256 H6          11.3331    12.2472    16.5371 H6            1 RES     
     257 H6          13.8308    12.7847    18.2317 H6            1 RES     
     258 H6          13.6806    13.1260    16.4655 H6            1 RES     
     259 H6          13.4176    10.3675    17.8035 H6            1 RES     
     260 H6          13.4400    10.6639    16.0713 H6            1 RES     
     261 H6          15.6557    11.1735    18.0508 H6            1 RES     
     262 H6          15.6185     9.9079    16.7843 H6            1 RES     
     263 H6          15.7992    12.9835    16.2956 H6            1 RES     
     264 H6          17.1553    11.8861    16.4679 H6            1 RES     
     265 H6          16.6873    10.7376    14.3844 H6            1 RES     
     266 H6          15.2128    11.6868    14.0993 H6            1 RES     
     267 H6          16.8180    12.4196    14.0819 H6            1 RES     
     268 C0           6.0739    12.1834    10.1227 C0            1 RES     
     269 C0           4.6066    11.7168     9.7274 C0            1 RES     
     270 C0           3.9050    11.7892     8.3072 C0            1 RES     
     271 C0           4.1951    11.1756     6.8403 C0            1 RES     
     272 C0           4.3356     9.6466     6.3985 C0            1 RES     
     273 C0           5.8051     9.1927     5.9952 C0            1 RES     
     274 C0           6.0452     7.6568     5.6511 C0            1 RES     
     275 C0           7.4426     7.4289     4.9461 C0            1 RES     
     276 C0           7.9830     6.0010     4.4329 C0            1 RES     
     277 C0           9.0456     5.2755     5.3484 C0            1 RES     
     278 C0          10.0528     4.1584     4.7502 C0            1 RES     
     279 C0          11.4091     3.7187     5.5572 C0            1 RES     
     280 C0          11.8309     2.2348     5.3245 C0            1 RES     
     281 C0          11.3323     1.2969     6.4488 C0            1 RES     
     282 C0          12.1564    -0.0013     6.4964 C0            1 RES     
     283 C0          11.7872    -0.8584     7.7043 C0            1 RES     
     284 C0          12.7307     4.6067     5.3829 C0            1 RES     
     285 C0          13.9245     4.2822     6.3859 C0            1 RES     
     286 C0          14.8367     5.4375     6.9658 C0            1 RES     
     287 C0          16.1372     5.8008     6.2626 C0            1 RES     
     288 C0          16.9416     6.8931     7.0024 C0            1 RES     
     289 C0          16.2957     8.2910     7.0267 C0            1 RES     
     290 H6           6.1807    11.8828    11.1886 H6            1 RES     
     291 H6           6.1497    13.2060    10.1604 H6            1 RES     
     292 H6           4.4228    10.7141    10.1450 H6            1 RES     
     293 H6           3.9584    12.3105    10.4120 H6            1 RES     
     294 H6           2.8874    11.4051     8.5525 H6            1 RES     
     295 H6           3.7847    12.8808     8.1307 H6            1 RES     
     296 H6           4.9305    11.7625     6.2707 H6            1 RES     
     297 H6           3.2433    11.4761     6.3455 H6            1 RES     
     298 H6           3.7924     8.9773     7.0995 H6            1 RES     
     299 H6           3.7669     9.5243     5.4507 H6            1 RES     
     300 H6           6.5444     9.4805     6.7638 H6            1 RES     
     301 H6           6.0604     9.8022     5.1021 H6            1 RES     
     302 H6           5.2538     7.3205     4.9476 H6            1 RES     
     303 H6           5.9643     7.0603     6.5846 H6            1 RES     
     304 H6           8.2314     7.9142     5.5541 H6            1 RES     
     305 H6           7.3455     8.0460     4.0259 H6            1 RES     
     306 H6           7.1692     5.3468     4.0573 H6            1 RES     
     307 H6           8.5976     6.2656     3.5439 H6            1 RES     
     308 H6           9.6373     6.1225     5.5992 H6            1 RES     
     309 H6           8.5512     4.8977     6.2702 H6            1 RES     
     310 H6           9.4146     3.2567     4.6391 H6            1 RES     
     311 H6          10.3766     4.4532     3.7302 H6            1 RES     
     312 H6          11.1678     3.7660     6.6272 H6            1 RES     
     313 H6          12.9282     2.1642     5.4181 H6            1 RES     
     314 H6          11.6256     1.8791     4.2943 H6            1 RES     
     315 H6          10.2439     1.1059     6.3465 H6            1 RES     
     316 H6          11.5121     1.7894     7.4325 H6            1 RES     
     317 H6          12.0226    -0.5778     5.5586 H6            1 RES     
     318 H6          13.2356     0.2563     6.6052 H6            1 RES     
     319 H6          12.4374    -1.7586     7.7306 H6            1 RES     
     320 H6          10.7265    -1.1749     7.6461 H6            1 RES     
     321 H6          11.9503    -0.2893     8.6467 H6            1 RES     
     322 H6          13.1009     4.5816     4.3371 H6            1 RES     
     323 H6          12.4402     5.5966     5.6157 H6            1 RES     
     324 H6          14.5566     3.4309     6.0693 H6            1 RES     
     325 H6          13.4222     3.8820     7.2727 H6            1 RES     
     326 H6          14.3219     6.3700     7.0836 H6            1 RES     
     327 H6          15.1391     5.1269     7.9882 H6            1 RES     
     328 H6          16.7637     4.8886     6.1983 H6            1 RES     
     329 H6          15.9332     6.1894     5.2811 H6            1 RES     
     330 H6          17.1345     6.5541     8.0353 H6            1 RES     
     331 H6          17.9153     6.9916     6.4885 H6            1 RES     
     332 H6          16.0949     8.6665     6.0095 H6            1 RES     
     333 H6          15.3504     8.3083     7.6052 H6            1 RES     
     334 H6          16.9939     9.0183     7.4903 H6            1 RES     
     335 C0          23.4505    13.7379    13.2490 C0            1 RES     
     336 C0          22.9956    15.1035    12.4957 C0            1 RES     
     337 C0          24.0658    16.2614    12.2744 C0            1 RES     
     338 C0          24.9293    16.5126    10.9431 C0            1 RES     
     339 C0          25.8215    15.5947     9.9474 C0            1 RES     
     340 C0          25.0451    14.5660     8.9839 C0            1 RES     
     341 C0          25.6025    13.9114     7.6356 C0            1 RES     
     342 C0          24.4986    13.0596     6.9207 C0            1 RES     
     343 C0          24.3051    13.1367     5.3585 C0            1 RES     
     344 C0          23.8936    14.5470     4.8663 C0            1 RES     
     345 C0          23.2487    14.7416     3.4509 C0            1 RES     
     346 C0          21.6943    15.0163     3.4454 C0            1 RES     
     347 C0          21.1923    15.7481     2.1612 C0            1 RES     
     348 C0          21.6944    17.2115     2.0748 C0            1 RES     
     349 C0          20.9590    18.0079     0.9869 C0            1 RES     
     350 C0          21.3967    19.4725     0.9879 C0            1 RES     
     351 C0          20.8550    13.7422     3.7941 C0            1 RES     
     352 C0          19.3170    13.9902     3.9026 C0            1 RES     
     353 C0          18.5334    12.7364     4.3403 C0            1 RES     
     354 C0          16.9960    12.8753     4.1843 C0            1 RES     
     355 C0          16.3019    13.9353     5.0605 C0            1 RES     
     356 C0          16.2948    13.5719     6.5410 C0            1 RES     
     357 H6          22.5934    13.1834    13.5859 H6            1 RES     
     358 H6          23.8842    14.1086    14.1480 H6            1 RES     
     359 H6          22.4286    14.9562    11.5569 H6            1 RES     
     360 H6          22.2980    15.5650    13.2182 H6            1 RES     
     361 H6          23.4895    17.2117    12.3556 H6            1 RES     
     362 H6          24.6856    16.3286    13.1785 H6            1 RES     
     363 H6          24.2195    17.0034    10.3052 H6            1 RES     
     364 H6          25.6228    17.3267    11.2639 H6            1 RES     
     365 H6          26.2884    16.3562     9.3779 H6            1 RES     
     366 H6          26.7148    15.1385    10.4168 H6            1 RES     
     367 H6          24.1894    15.1425     8.7267 H6            1 RES     
     368 H6          24.6361    13.6942     9.5093 H6            1 RES     
     369 H6          26.4885    13.2743     7.8302 H6            1 RES     
     370 H6          25.9609    14.6222     6.8768 H6            1 RES     
     371 H6          23.5129    13.3504     7.3328 H6            1 RES     
     372 H6          24.6617    12.0030     7.2224 H6            1 RES     
     373 H6          25.2136    12.8003     4.8083 H6            1 RES     
     374 H6          23.4818    12.4357     5.1167 H6            1 RES     
     375 H6          23.1982    14.9940     5.5913 H6            1 RES     
     376 H6          24.8417    15.1254     4.8795 H6            1 RES     
     377 H6          23.6942    15.6930     3.1033 H6            1 RES     
     378 H6          23.5760    13.9752     2.7171 H6            1 RES     
     379 H6          21.5011    15.7733     4.2094 H6            1 RES     
     380 H6          20.0959    15.8656     2.2354 H6            1 RES     
     381 H6          21.4169    15.1707     1.2405 H6            1 RES     
     382 H6          22.7848    17.2515     1.8862 H6            1 RES     
     383 H6          21.4817    17.7182     3.0448 H6            1 RES     
     384 H6          21.1594    17.5597    -0.0088 H6            1 RES     
     385 H6          19.8629    17.9799     1.1787 H6            1 RES     
     386 H6          20.8444    20.0298     0.2020 H6            1 RES     
     387 H6          22.4855    19.5529     0.7875 H6            1 RES     
     388 H6          21.1731    19.9430     1.9708 H6            1 RES     
     389 H6          21.0372    12.9613     3.0251 H6            1 RES     
     390 H6          21.2075    13.3554     4.7736 H6            1 RES     
     391 H6          18.9222    14.2677     2.9058 H6            1 RES     
     392 H6          19.1132    14.8151     4.6136 H6            1 RES     
     393 H6          18.8366    11.9184     3.6610 H6            1 RES     
     394 H6          18.8045    12.4401     5.3740 H6            1 RES     
     395 H6          16.7863    13.1250     3.1221 H6            1 RES     
     396 H6          16.5214    11.8900     4.3904 H6            1 RES     
     397 H6          16.7671    14.9312     4.9075 H6            1 RES     
     398 H6          15.2377    14.0067     4.7438 H6            1 RES     
     399 H6          15.7676    12.6082     6.7052 H6            1 RES     
     400 H6          17.3235    13.4779     6.9092 H6            1 RES     
     401 H6          15.7731    14.3638     7.1211 H6            1 RES     
     402 C0          25.4265    13.6258    11.9728 C0            1 RES     
     403 C0          26.3204    14.4247    13.0564 C0            1 RES     
     404 C0          26.1753    14.5217    14.6836 C0            1 RES     
     405 C0          25.5370    13.5904    15.8702 C0            1 RES     
     406 C0          25.5022    12.0012    16.0691 C0            1 RES     
     407 C0          24.2027    11.2975    15.5347 C0            1 RES     
     408 C0          24.1818     9.7431    15.2731 C0            1 RES     
     409 C0          22.7199     9.2991    14.9540 C0            1 RES     
     410 C0          22.2831     7.7993    15.0427 C0            1 RES     
     411 C0          22.1633     6.9991    13.7237 C0            1 RES     
     412 C0          21.4956     5.5771    13.8739 C0            1 RES     
     413 C0          19.9201     5.4352    13.8024 C0            1 RES     
     414 C0          19.4600     3.9442    13.8170 C0            1 RES     
     415 C0          20.0074     2.9783    12.7643 C0            1 RES     
     416 C0          19.2381     1.6431    12.9001 C0            1 RES     
     417 C0          19.7102     0.5869    11.9138 C0            1 RES     
     418 C0          19.1401     6.1599    14.9489 C0            1 RES     
     419 C0          17.5950     6.0625    14.8079 C0            1 RES     
     420 C0          16.8058     6.7999    15.9021 C0            1 RES     
     421 C0          15.2780     6.7578    15.6647 C0            1 RES     
     422 C0          14.8440     7.2578    14.2760 C0            1 RES     
     423 C0          15.3870     8.6475    13.9786 C0            1 RES     
     424 H6          26.0945    13.1933    11.1832 H6            1 RES     
     425 H6          24.8193    14.2202    11.4175 H6            1 RES     
     426 H6          26.6331    15.4151    12.6733 H6            1 RES     
     427 H6          27.3065    14.0023    12.8568 H6            1 RES     
     428 H6          27.2406    14.6455    14.9826 H6            1 RES     
     429 H6          25.7638    15.5279    14.9007 H6            1 RES     
     430 H6          24.5121    13.9391    16.1091 H6            1 RES     
     431 H6          26.0991    13.9566    16.7574 H6            1 RES     
     432 H6          26.4522    11.4995    15.8180 H6            1 RES     
     433 H6          25.4536    11.8058    17.1615 H6            1 RES     
     434 H6          23.8772    11.7241    14.6156 H6            1 RES     
     435 H6          23.4010    11.5867    16.2441 H6            1 RES     
     436 H6          24.5177     9.2234    16.1771 H6            1 RES     
     437 H6          24.8660     9.4526    14.4501 H6            1 RES     
     438 H6          22.3049     9.7912    14.0458 H6            1 RES     
     439 H6          22.1967     9.7323    15.8045 H6            1 RES     
     440 H6          22.8946     7.2606    15.7921 H6            1 RES     
     441 H6          21.2687     7.8216    15.4512 H6            1 RES     
     442 H6          21.6068     7.5685    12.9465 H6            1 RES     
     443 H6          23.2057     6.8657    13.3630 H6            1 RES     
     444 H6          21.8513     5.0176    12.9833 H6            1 RES     
     445 H6          21.9065     5.0621    14.7677 H6            1 RES     
     446 H6          19.6027     5.8810    12.8339 H6            1 RES     
     447 H6          18.3760     3.9299    13.6132 H6            1 RES     
     448 H6          19.6499     3.5129    14.8252 H6            1 RES     
     449 H6          21.0924     2.8120    12.9271 H6            1 RES     
     450 H6          19.8402     3.3945    11.7471 H6            1 RES     
     451 H6          19.3553     1.2427    13.9301 H6            1 RES     
     452 H6          18.1523     1.8191    12.7192 H6            1 RES     
     453 H6          19.1059    -0.3357    12.0572 H6            1 RES     
     454 H6          20.7772     0.3471    12.0967 H6            1 RES     
     455 H6          19.5736     0.9431    10.8719 H6            1 RES     
     456 H6          19.4477     5.7590    15.9377 H6            1 RES     
     457 H6          19.3842     7.2210    14.8913 H6            1 RES     
     458 H6          17.2239     5.0249    14.8729 H6            1 RES     
     459 H6          17.3570     6.4778    13.8073 H6            1 RES     
     460 H6          17.0288     6.3585    16.8955 H6            1 RES     
     461 H6          17.1076     7.8501    15.9500 H6            1 RES     
     462 H6          14.9062     5.7175    15.7784 H6            1 RES     
     463 H6          14.7902     7.3834    16.4450 H6            1 RES     
     464 H6          15.2040     6.5639    13.4934 H6            1 RES     
     465 H6          13.7347     7.2660    14.2395 H6            1 RES     
     466 H6          14.9401     9.3483    14.7021 H6            1 RES     
     467 H6          16.4867     8.6373    14.0147 H6            1 RES     
     468 H6          15.1964     9.0306    12.9676 H6            1 RES     
     469 C0          29.2652     8.7755    10.4444 C0            1 RES     
     470 C0          28.8033     7.2440    10.6372 C0            1 RES     
     471 C0          29.6234     6.0569    11.3847 C0            1 RES     
     472 C0          29.7226     5.8835    12.9689 C0            1 RES     
     473 C0          29.3315     5.7601    14.5003 C0            1 RES     
     474 C0          28.8423     7.1266    15.1018 C0            1 RES     
     475 C0          28.1969     7.1046    16.4947 C0            1 RES     
     476 C0          27.4425     8.4526    16.7452 C0            1 RES     
     477 C0          26.5691     8.5309    18.0262 C0            1 RES     
     478 C0          25.6604     7.3013    18.1446 C0            1 RES     
     479 C0          24.6866     7.2504    19.3386 C0            1 RES     
     480 C0          23.1906     7.5632    19.0311 C0            1 RES     
     481 C0          22.2431     6.9457    20.1095 C0            1 RES     
     482 C0          22.4069     5.4344    20.3401 C0            1 RES     
     483 C0          21.2858     4.8922    21.2288 C0            1 RES     
     484 C0          21.4823     3.4038    21.4909 C0            1 RES     
     485 C0          22.8853     9.0867    18.8346 C0            1 RES     
     486 C0          21.3920     9.2953    18.5160 C0            1 RES     
     487 C0          20.9267    10.7050    18.1357 C0            1 RES     
     488 C0          19.3884    10.7363    18.0278 C0            1 RES     
     489 C0          18.7517     9.6618    17.1114 C0            1 RES     
     490 C0          19.0324     9.8629    15.6287 C0            1 RES     
     491 H6          28.6652     9.2377     9.6320 H6            1 RES     
     492 H6          30.2593     8.6730    10.0687 H6            1 RES     
     493 H6          27.7594     7.2154    11.0009 H6            1 RES     
     494 H6          28.7721     6.8750     9.5887 H6            1 RES     
     495 H6          29.1171     5.1227    11.0481 H6            1 RES     
     496 H6          30.6494     5.9995    10.9555 H6            1 RES     
     497 H6          28.6612     6.1834    12.8707 H6            1 RES     
     498 H6          30.6154     6.5134    13.1380 H6            1 RES     
     499 H6          28.5359     4.9906    14.6253 H6            1 RES     
     500 H6          30.2087     5.4153    15.0956 H6            1 RES     
     501 H6          28.0491     7.5068    14.4230 H6            1 RES     
     502 H6          29.6863     7.8391    15.1434 H6            1 RES     
     503 H6          28.9489     6.9014    17.2885 H6            1 RES     
     504 H6          27.4596     6.2807    16.4677 H6            1 RES     
     505 H6          26.7517     8.6017    15.8901 H6            1 RES     
     506 H6          28.1570     9.3058    16.7410 H6            1 RES     
     507 H6          27.2178     8.5817    18.9268 H6            1 RES     
     508 H6          25.9689     9.4647    17.9890 H6            1 RES     
     509 H6          25.1194     7.0788    17.1993 H6            1 RES     
     510 H6          26.3786     6.4711    18.3188 H6            1 RES     
     511 H6          24.6997     6.1693    19.5508 H6            1 RES     
     512 H6          25.0780     7.7475    20.2510 H6            1 RES     
     513 H6          22.9396     7.0328    18.0865 H6            1 RES     
     514 H6          21.2002     7.0422    19.7513 H6            1 RES     
     515 H6          22.3511     7.4853    21.0745 H6            1 RES     
     516 H6          23.3689     5.2251    20.8485 H6            1 RES     
     517 H6          22.3739     4.9048    19.3622 H6            1 RES     
     518 H6          21.2824     5.4343    22.1986 H6            1 RES     
     519 H6          20.3043     5.0468    20.7282 H6            1 RES     
     520 H6          20.6592     3.0278    22.1330 H6            1 RES     
     521 H6          22.4498     3.2348    22.0112 H6            1 RES     
     522 H6          21.4803     2.8405    20.5333 H6            1 RES     
     523 H6          23.1494     9.6660    19.7441 H6            1 RES     
     524 H6          23.4869     9.4779    18.0037 H6            1 RES     
     525 H6          20.8002     9.0382    19.4146 H6            1 RES     
     526 H6          21.1464     8.6107    17.6817 H6            1 RES     
     527 H6          21.2304    11.4308    18.9189 H6            1 RES     
     528 H6          21.3757    11.0456    17.1932 H6            1 RES     
     529 H6          18.9808    10.5545    19.0468 H6            1 RES     
     530 H6          19.0620    11.7495    17.7191 H6            1 RES     
     531 H6          19.0261     8.6328    17.4147 H6            1 RES     
     532 H6          17.6704     9.7187    17.2614 H6            1 RES     
     533 H6          18.6617    10.8352    15.3210 H6            1 RES     
     534 H6          20.0965     9.7864    15.3956 H6            1 RES     
     535 H6          18.4977     9.1492    14.9904 H6            1 RES     
     536 C0          30.0148     9.0452    12.7421 C0            1 RES     
     537 C0          31.5949     9.0691    12.5232 C0            1 RES     
     538 C0          32.4259     9.0950    11.1405 C0            1 RES     
     539 C0          32.4015     9.9196     9.7126 C0            1 RES     
     540 C0          32.3286    11.4818     9.3003 C0            1 RES     
     541 C0          30.9201    12.0675     8.8352 C0            1 RES     
     542 C0          30.8600    13.6029     8.3719 C0            1 RES     
     543 C0          29.5047    13.9699     7.6133 C0            1 RES     
     544 C0          29.1477    15.4033     6.9311 C0            1 RES     
     545 C0          28.0420    16.3123     7.6300 C0            1 RES     
     546 C0          27.1639    17.4062     6.7842 C0            1 RES     
     547 C0          25.6687    17.9171     7.2584 C0            1 RES     
     548 C0          25.3402    19.4214     6.9834 C0            1 RES     
     549 C0          25.5184    20.3230     8.2345 C0            1 RES     
     550 C0          24.6918    21.6173     8.1157 C0            1 RES     
     551 C0          24.7625    22.4577     9.3891 C0            1 RES     
     552 C0          24.3824    17.0840     6.7832 C0            1 RES     
     553 C0          23.0672    17.3697     7.6167 C0            1 RES     
     554 C0          21.9490    16.2923     7.9138 C0            1 RES     
     555 C0          20.8074    16.1342     6.9159 C0            1 RES     
     556 C0          19.5503    15.5148     7.5525 C0            1 RES     
     557 C0          19.7528    14.0774     8.0134 C0            1 RES     
     558 H6          29.8368     9.4418    13.7696 H6            1 RES     
     559 H6          29.5253     8.1445    12.8159 H6            1 RES     
     560 H6          31.9507     9.9166    13.1289 H6            1 RES     
     561 H6          32.0132     8.2642    13.1631 H6            1 RES     
     562 H6          33.4511     9.2826    11.5331 H6            1 RES     
     563 H6          32.4370     8.0290    10.8254 H6            1 RES     
     564 H6          31.7840     9.3978     8.9649 H6            1 RES     
     565 H6          33.4201     9.6397     9.3557 H6            1 RES     
     566 H6          32.9332    11.5650     8.3706 H6            1 RES     
     567 H6          32.8782    12.1362    10.0051 H6            1 RES     
     568 H6          30.1529    11.9221     9.6126 H6            1 RES     
     569 H6          30.6154    11.4369     7.9721 H6            1 RES     
     570 H6          31.6950    13.7888     7.6623 H6            1 RES     
     571 H6          31.0034    14.2542     9.2592 H6            1 RES     
     572 H6          28.6526    13.6459     8.2413 H6            1 RES     
     573 H6          29.5340    13.2599     6.7566 H6            1 RES     
     574 H6          30.0470    15.9497     6.5768 H6            1 RES     
     575 H6          28.6090    15.1037     6.0053 H6            1 RES     
     576 H6          27.3930    15.5374     7.9406 H6            1 RES     
     577 H6          28.4470    16.7687     8.5606 H6            1 RES     
     578 H6          27.8254    18.2969     6.7476 H6            1 RES     
     579 H6          27.0439    17.0583     5.7385 H6            1 RES     
     580 H6          25.6536    17.8736     8.3410 H6            1 RES     
     581 H6          24.2575    19.5060     6.7795 H6            1 RES     
     582 H6          25.8065    19.8082     6.0564 H6            1 RES     
     583 H6          26.5943    20.5216     8.4176 H6            1 RES     
     584 H6          25.1010    19.8012     9.1277 H6            1 RES     
     585 H6          25.0335    22.2143     7.2464 H6            1 RES     
     586 H6          23.6197    21.3502     7.9651 H6            1 RES     
     587 H6          24.1155    23.3542     9.2767 H6            1 RES     
     588 H6          25.8045    22.7846     9.5800 H6            1 RES     
     589 H6          24.3935    21.8755    10.2626 H6            1 RES     
     590 H6          24.1880    17.2022     5.6973 H6            1 RES     
     591 H6          24.6040    16.0714     6.9458 H6            1 RES     
     592 H6          22.5734    18.3205     7.3495 H6            1 RES     
     593 H6          23.4429    17.5601     8.6047 H6            1 RES     
     594 H6          22.3035    15.2808     8.1548 H6            1 RES     
     595 H6          21.4634    16.6613     8.8434 H6            1 RES     
     596 H6          20.5238    17.1295     6.5254 H6            1 RES     
     597 H6          21.1204    15.4568     6.1279 H6            1 RES     
     598 H6          19.2247    16.1369     8.4141 H6            1 RES     
     599 H6          18.7266    15.5205     6.8087 H6            1 RES     
     600 H6          19.9976    13.4093     7.1648 H6            1 RES     
     601 H6          20.5537    14.0008     8.7737 H6            1 RES     
     602 H6          18.8041    13.7372     8.4647 H6            1 RES     
     603 H7           5.0664     7.4489    10.0919 H7            1 RES     
     604 H3          35.6419    15.4176    14.4150 H3            1 RES     
@<TRIPOS>BOND
       1        1        2 1
       2        1        9 1
       3        1       67 1
       4        1      134 1
       5        2        3 1
       6        2       18 1
       7        3        4 1
       8        3       16 1
       9        4        5 1
      10        4        9 1
      11        5        6 1
      12        5       19 1
      13        6        7 1
      14        6       12 1
      15        7        8 1
      16        7       10 1
      17        8        9 1
      18        8       20 1
      19       10       11 1
      20       10       15 1
      21       11       12 1
      22       11       13 1
      23       12      201 1
      24       12      268 1
      25       13       14 1
      26       13       21 1
      27       14       15 1
      28       14      603 1
      29       16       17 1
      30       17       18 1
      31       17       26 1
      32       18       22 1
      33       23       24 1
      34       23       25 1
      35       23       32 1
      36       25       26 1
      37       25       33 1
      38       26       27 1
      39       27       28 1
      40       27       31 1
      41       28       29 1
      42       29       30 1
      43       30       31 1
      44       31       32 1
      45       32       50 1
      46       34       35 1
      47       34       42 1
      48       34      335 1
      49       34      402 1
      50       35       36 1
      51       35       51 1
      52       36       37 1
      53       36       49 1
      54       37       38 1
      55       37       42 1
      56       38       39 1
      57       38       52 1
      58       39       40 1
      59       39       45 1
      60       40       41 1
      61       40       43 1
      62       41       42 1
      63       41       53 1
      64       43       44 1
      65       43       48 1
      66       44       45 1
      67       44       46 1
      68       45      469 1
      69       45      536 1
      70       46       47 1
      71       46       54 1
      72       47       48 1
      73       47       65 1
      74       49       50 1
      75       50       51 1
      76       51       55 1
      77       56       57 1
      78       56       58 1
      79       56       65 1
      80       58       59 1
      81       58       66 1
      82       59       60 1
      83       59      604 1
      84       60       61 1
      85       60       64 1
      86       61       62 1
      87       62       63 1
      88       63       64 1
      89       64       65 1
      90       67       68 1
      91       67       89 1
      92       67       90 1
      93       68       69 1
      94       68       91 1
      95       68       92 1
      96       69       70 1
      97       69       93 1
      98       69       94 1
      99       70       71 1
     100       70       95 1
     101       70       96 1
     102       71       72 1
     103       71       97 1
     104       71       98 1
     105       72       73 1
     106       72       99 1
     107       72      100 1
     108       73       74 1
     109       73      101 1
     110       73      102 1
     111       74       75 1
     112       74      103 1
     113       74      104 1
     114       75       76 1
     115       75      105 1
     116       75      106 1
     117       76       77 1
     118       76      107 1
     119       76      108 1
     120       77       78 1
     121       77      109 1
     122       77      110 1
     123       78       79 1
     124       78       83 1
     125       78      111 1
     126       79       80 1
     127       79      112 1
     128       79      113 1
     129       80       81 1
     130       80      114 1
     131       80      115 1
     132       81       82 1
     133       81      116 1
     134       81      117 1
     135       82      118 1
     136       82      119 1
     137       82      120 1
     138       83       84 1
     139       83      121 1
     140       83      122 1
     141       84       85 1
     142       84      123 1
     143       84      124 1
     144       85       86 1
     145       85      125 1
     146       85      126 1
     147       86       87 1
     148       86      127 1
     149       86      128 1
     150       87       88 1
     151       87      129 1
     152       87      130 1
     153       88      131 1
     154       88      132 1
     155       88      133 1
     156      134      135 1
     157      134      156 1
     158      134      157 1
     159      135      136 1
     160      135      158 1
     161      135      159 1
     162      136      137 1
     163      136      160 1
     164      136      161 1
     165      137      138 1
     166      137      162 1
     167      137      163 1
     168      138      139 1
     169      138      164 1
     170      138      165 1
     171      139      140 1
     172      139      166 1
     173      139      167 1
     174      140      141 1
     175      140      168 1
     176      140      169 1
     177      141      142 1
     178      141      170 1
     179      141      171 1
     180      142      143 1
     181      142      172 1
     182      142      173 1
     183      143      144 1
     184      143      174 1
     185      143      175 1
     186      144      145 1
     187      144      176 1
     188      144      177 1
     189      145      146 1
     190      145      150 1
     191      145      178 1
     192      146      147 1
     193      146      179 1
     194      146      180 1
     195      147      148 1
     196      147      181 1
     197      147      182 1
     198      148      149 1
     199      148      183 1
     200      148      184 1
     201      149      185 1
     202      149      186 1
     203      149      187 1
     204      150      151 1
     205      150      188 1
     206      150      189 1
     207      151      152 1
     208      151      190 1
     209      151      191 1
     210      152      153 1
     211      152      192 1
     212      152      193 1
     213      153      154 1
     214      153      194 1
     215      153      195 1
     216      154      155 1
     217      154      196 1
     218      154      197 1
     219      155      198 1
     220      155      199 1
     221      155      200 1
     222      201      202 1
     223      201      223 1
     224      201      224 1
     225      202      203 1
     226      202      225 1
     227      202      226 1
     228      203      204 1
     229      203      227 1
     230      203      228 1
     231      204      205 1
     232      204      229 1
     233      204      230 1
     234      205      206 1
     235      205      231 1
     236      205      232 1
     237      206      207 1
     238      206      233 1
     239      206      234 1
     240      207      208 1
     241      207      235 1
     242      207      236 1
     243      208      209 1
     244      208      237 1
     245      208      238 1
     246      209      210 1
     247      209      239 1
     248      209      240 1
     249      210      211 1
     250      210      241 1
     251      210      242 1
     252      211      212 1
     253      211      243 1
     254      211      244 1
     255      212      213 1
     256      212      217 1
     257      212      245 1
     258      213      214 1
     259      213      246 1
     260      213      247 1
     261      214      215 1
     262      214      248 1
     263      214      249 1
     264      215      216 1
     265      215      250 1
     266      215      251 1
     267      216      252 1
     268      216      253 1
     269      216      254 1
     270      217      218 1
     271      217      255 1
     272      217      256 1
     273      218      219 1
     274      218      257 1
     275      218      258 1
     276      219      220 1
     277      219      259 1
     278      219      260 1
     279      220      221 1
     280      220      261 1
     281      220      262 1
     282      221      222 1
     283      221      263 1
     284      221      264 1
     285      222      265 1
     286      222      266 1
     287      222      267 1
     288      268      269 1
     289      268      290 1
     290      268      291 1
     291      269      270 1
     292      269      292 1
     293      269      293 1
     294      270      271 1
     295      270      294 1
     296      270      295 1
     297      271      272 1
     298      271      296 1
     299      271      297 1
     300      272      273 1
     301      272      298 1
     302      272      299 1
     303      273      274 1
     304      273      300 1
     305      273      301 1
     306      274      275 1
     307      274      302 1
     308      274      303 1
     309      275      276 1
     310      275      304 1
     311      275      305 1
     312      276      277 1
     313      276      306 1
     314      276      307 1
     315      277      278 1
     316      277      308 1
     317      277      309 1
     318      278      279 1
     319      278      310 1
     320      278      311 1
     321      279      280 1
     322      279      284 1
     323      279      312 1
     324      280      281 1
     325      280      313 1
     326      280      314 1
     327      281      282 1
     328      281      315 1
     329      281      316 1
     330      282      283 1
     331      282      317 1
     332      282      318 1
     333      283      319 1
     334      283      320 1
     335      283      321 1
     336      284      285 1
     337      284      322 1
     338      284      323 1
     339      285      286 1
     340      285      324 1
     341      285      325 1
     342      286      287 1
     343      286      326 1
     344      286      327 1
     345      287      288 1
     346      287      328 1
     347      287      329 1
     348      288      289 1
     349      288      330 1
     350      288      331 1
     351      289      332 1
     352      289      333 1
     353      289      334 1
     354      335      336 1
     355      335      357 1
     356      335      358 1
     357      336      337 1
     358      336      359 1
     359      336      360 1
     360      337      338 1
     361      337      361 1
     362      337      362 1
     363      338      339 1
     364      338      363 1
     365      338      364 1
     366      339      340 1
     367      339      365 1
     368      339      366 1
     369      340      341 1
     370      340      367 1
     371      340      368 1
     372      341      342 1
     373      341      369 1
     374      341      370 1
     375      342      343 1
     376      342      371 1
     377      342      372 1
     378      343      344 1
     379      343      373 1
     380      343      374 1
     381      344      345 1
     382      344      375 1
     383      344      376 1
     384      345      346 1
     385      345      377 1
     386      345      378 1
     387      346      347 1
     388      346      351 1
     389      346      379 1
     390      347      348 1
     391      347      380 1
     392      347      381 1
     393      348      349 1
     394      348      382 1
     395      348      383 1
     396      349      350 1
     397      349      384 1
     398      349      385 1
     399      350      386 1
     400      350      387 1
     401      350      388 1
     402      351      352 1
     403      351      389 1
     404      351      390 1
     405      352      353 1
     406      352      391 1
     407      352      392 1
     408      353      354 1
     409      353      393 1
     410      353      394 1
     411      354      355 1
     412      354      395 1
     413      354      396 1
     414      355      356 1
     415      355      397 1
     416      355      398 1
     417      356      399 1
     418      356      400 1
     419      356      401 1
     420      402      403 1
     421      402      424 1
     422      402      425 1
     423      403      404 1
     424      403      426 1
     425      403      427 1
     426      404      405 1
     427      404      428 1
     428      404      429 1
     429      405      406 1
     430      405      430 1
     431      405      431 1
     432      406      407 1
     433      406      432 1
     434      406      433 1
     435      407      408 1
     436      407      434 1
     437      407      435 1
     438      408      409 1
     439      408      436 1
     440      408      437 1
     441      409      410 1
     442      409      438 1
     443      409      439 1
     444      410      411 1
     445      410      440 1
     446      410      441 1
     447      411      412 1
     448      411      442 1
     449      411      443 1
     450      412      413 1
     451      412      444 1
     452      412      445 1
     453      413      414 1
     454      413      418 1
     455      413      446 1
     456      414      415 1
     457      414      447 1
     458      414      448 1
     459      415      416 1
     460      415      449 1
     461      415      450 1
     462      416      417 1
     463      416      451 1
     464      416      452 1
     465      417      453 1
     466      417      454 1
     467      417      455 1
     468      418      419 1
     469      418      456 1
     470      418      457 1
     471      419      420 1
     472      419      458 1
     473      419      459 1
     474      420      421 1
     475      420      460 1
     476      420      461 1
     477      421      422 1
     478      421      462 1
     479      421      463 1
     480      422      423 1
     481      422      464 1
     482      422      465 1
     483      423      466 1
     484      423      467 1
     485      423      468 1
     486      469      470 1
     487      469      491 1
     488      469      492 1
     489      470      471 1
     490      470      493 1
     491      470      494 1
     492      471      472 1
     493      471      495 1
     494      471      496 1
     495      472      473 1
     496      472      497 1
     497      472      498 1
     498      473      474 1
     499      473      499 1
     500      473      500 1
     501      474      475 1
     502      474      501 1
     503      474      502 1
     504      475      476 1
     505      475      503 1
     506      475      504 1
     507      476      477 1
     508      476      505 1
     509      476      506 1
     510      477      478 1
     511      477      507 1
     512      477      508 1
     513      478      479 1
     514      478      509 1
     515      478      510 1
     516      479      480 1
     517      479      511 1
     518      479      512 1
     519      480      481 1
     520      480      485 1
     521      480      513 1
     522      481      482 1
     523      481      514 1
     524      481      515 1
     525      482      483 1
     526      482      516 1
     527      482      517 1
     528      483      484 1
     529      483      518 1
     530      483      519 1
     531      484      520 1
     532      484      521 1
     533      484      522 1
     534      485      486 1
     535      485      523 1
     536      485      524 1
     537      486      487 1
     538      486      525 1
     539      486      526 1
     540      487      488 1
     541      487      527 1
     542      487      528 1
     543      488      489 1
     544      488      529 1
     545      488      530 1
     546      489      490 1
     547      489      531 1
     548      489      532 1
     549      490      533 1
     550      490      534 1
     551      490      535 1
     552      536      537 1
     553      536      558 1
     554      536      559 1
     555      537      538 1
     556      537      560 1
     557      537      561 1
     558      538      539 1
     559      538      562 1
     560      538      563 1
     561      539      540 1
     562      539      564 1
     563      539      565 1
     564      540      541 1
     565      540      566 1
     566      540      567 1
     567      541      542 1
     568      541      568 1
     569      541      569 1
     570      542      543 1
     571      542      570 1
     572      542      571 1
     573      543      544 1
     574      543      572 1
     575      543      573 1
     576      544      545 1
     577      544      574 1
     578      544      575 1
     579      545      546 1
     580      545      576 1
     581      545      577 1
     582      546      547 1
     583      546      578 1
     584      546      579 1
     585      547      548 1
     586      547      552 1
     587      547      580 1
     588      548      549 1
     589      548      581 1
     590      548      582 1
     591      549      550 1
     592      549      583 1
     593      549      584 1
     594      550      551 1
     595      550      585 1
     596      550      586 1
     597      551      587 1
     598      551      588 1
     599      551      589 1
     600      552      553 1
     601      552      590 1
     602      552      591 1
     603      553      554 1
     604      553      592 1
     605      553      593 1
     606      554      555 1
     607      554      594 1
     608      554      595 1
     609      555      556 1
     610      555      596 1
     611      555      597 1
     612      556      557 1
     613      556      598 1
     614      556      599 1
     615      557      600 1
     616      557      601 1
     617      557      602 1
@<TRIPOS>SUBSTRUCTURE
       1 RES             1 RESIDUE    0 **** ROOT      0
