@<TRIPOS>MOLECULE
Compound
187 198 1 0 1
SMALL
NO_CHARGES
@<TRIPOS>CRYSIN
   31.5650    28.1630    19.4800    90.0000    90.0000    90.0000  1  1
@<TRIPOS>ATOM
       1 C0          -1.3900     1.6860    -0.1240 C0            1 Compound
       2 C0          -0.6940     0.4690    -0.0040 C0            1 Compound
       3 C0           0.7430     0.4650     0.0060 C0            1 Compound
       4 C0           1.4460     1.6780     0.1290 C0            1 Compound
       5 C0           0.7450     2.9270     0.0990 C0            1 Compound
       6 C0          -0.6830     2.9320    -0.0910 C0            1 Compound
       7 N1          -1.2070     4.1430    -0.1590 N1            1 Compound
       8 S2           0.0380     5.2000     0.0060 S2            1 Compound
       9 N1           1.2770     4.1350     0.1690 N1            1 Compound
      10 C0          -2.7630     1.3620    -0.1380 C0            1 Compound
      11 C0          -2.8620    -0.0140     0.0080 C0            1 Compound
      12 N1          -1.6030    -0.5690     0.1000 N1            1 Compound
      13 C0           2.8170     1.3450     0.1420 C0            1 Compound
      14 C0           2.9080    -0.0310    -0.0080 C0            1 Compound
      15 N1           1.6460    -0.5780    -0.1010 N1            1 Compound
      16 C0          -4.2010    -0.4690     0.0680 C0            1 Compound
      17 C0          -5.0930     0.5970    -0.0520 C0            1 Compound
      18 S2          -4.3040     2.1600    -0.2290 S2            1 Compound
      19 C0           4.2440    -0.4930    -0.0680 C0            1 Compound
      20 C0           5.1430     0.5680     0.0540 C0            1 Compound
      21 S2           4.3620     2.1340     0.2350 S2            1 Compound
      22 C0          -6.4420     0.2130    -0.0210 C0            1 Compound
      23 C0          -6.5710    -1.1770     0.1360 C0            1 Compound
      24 S2          -4.9990    -1.9820     0.2310 S2            1 Compound
      25 C0           6.4890     0.1760     0.0220 C0            1 Compound
      26 C0           6.6100    -1.2150    -0.1380 C0            1 Compound
      27 S2           5.0340    -2.0100    -0.2350 S2            1 Compound
      28 C0          -7.8570    -1.7740     0.1890 C0            1 Compound
      29 C0          -8.3210    -3.0550     0.3370 C0            1 Compound
      30 C0           7.8930    -1.8190    -0.1930 C0            1 Compound
      31 C0           8.3500    -3.1010    -0.3430 C0            1 Compound
      32 C3          -1.3830    -1.8870     0.6770 C3            1 Compound
      33 C3           1.4180    -1.8930    -0.6800 C3            1 Compound
      34 C3           7.6380     1.1350     0.1430 C3            1 Compound
      35 C3          -7.5860     1.1790    -0.1400 C3            1 Compound
      36 C0          -9.7310    -3.4670     0.3560 C0            1 Compound
      37 C0          -9.7520    -4.9390     0.5700 C0            1 Compound
      38 C0          -8.4370    -5.4000     0.6670 C0            1 Compound
      39 C0          -7.4970    -4.2670     0.5230 C0            1 Compound
      40 C0           9.7570    -3.5210    -0.3640 C0            1 Compound
      41 C0           9.7700    -4.9930    -0.5810 C0            1 Compound
      42 C0           8.4520    -5.4470    -0.6790 C0            1 Compound
      43 C0           7.5180    -4.3080    -0.5320 C0            1 Compound
      44 C0          -8.1160    -6.7320     0.8680 C0            1 Compound
      45 C0          -9.1650    -7.6260     0.9730 C0            1 Compound
      46 C0         -10.4890    -7.1820     0.8780 C0            1 Compound
      47 C0         -10.8060    -5.8490     0.6770 C0            1 Compound
      48 C0           8.1230    -6.7770    -0.8830 C0            1 Compound
      49 C0           9.1670    -7.6760    -0.9910 C0            1 Compound
      50 C0          10.4930    -7.2400    -0.8950 C0            1 Compound
      51 C0          10.8180    -5.9090    -0.6900 C0            1 Compound
      52 O4          -6.2820    -4.3500     0.5570 O4            1 Compound
      53 O4           6.3030    -4.3840    -0.5670 O4            1 Compound
      54 F5         -11.4610    -8.0830     0.9850 F5            1 Compound
      55 F5          -8.9410    -8.9220     1.1670 F5            1 Compound
      56 F5           8.9360    -8.9700    -1.1880 F5            1 Compound
      57 F5          11.4610    -8.1460    -1.0050 F5            1 Compound
      58 C0         -10.8500    -2.6890     0.2030 C0            1 Compound
      59 C6         -12.1800    -3.2160     0.2390 C6            1 Compound
      60 N1         -13.2700    -3.6130     0.2630 N1            1 Compound
      61 C6         -10.8190    -1.2750    -0.0110 C6            1 Compound
      62 N1         -10.8230    -0.1270    -0.1840 N1            1 Compound
      63 C0          10.8810    -2.7510    -0.2090 C0            1 Compound
      64 C6          10.8580    -1.3370     0.0080 C6            1 Compound
      65 N1          10.8680    -0.1900     0.1850 N1            1 Compound
      66 C6          12.2070    -3.2850    -0.2460 C6            1 Compound
      67 N1          13.2950    -3.6890    -0.2710 N1            1 Compound
      68 H7          -8.6260    -1.0180     0.0870 H7            1 Compound
      69 H7           8.6660    -1.0670    -0.0890 H7            1 Compound
      70 H8          -0.3320    -2.1580     0.5780 H8            1 Compound
      71 H8          -2.0070    -2.6500     0.2040 H8            1 Compound
      72 H8           0.3950    -2.2100    -0.4780 H8            1 Compound
      73 H8           2.1180    -2.6380    -0.2930 H8            1 Compound
      74 H9           8.2740     1.1190    -0.7470 H9            1 Compound
      75 H9           8.2770     0.8940     0.9980 H9            1 Compound
      76 H9          -8.2210     1.1640     0.7500 H9            1 Compound
      77 H9          -8.2250     0.9440    -0.9950 H9            1 Compound
      78 H7          -7.0860    -7.0620     0.9400 H7            1 Compound
      79 H7         -11.8500    -5.5780     0.6110 H7            1 Compound
      80 H7           7.0910    -7.1000    -0.9560 H7            1 Compound
      81 H7          11.8640    -5.6440    -0.6240 H7            1 Compound
      82 C3          -1.7160    -1.8360     2.1790 C3            1 Compound
      83 H9          -1.7710    -0.8170     2.4980 H9            1 Compound
      84 C3          -0.6150    -2.5640     2.9740 C3            1 Compound
      85 H9          -0.5050    -3.5600     2.6000 H9            1 Compound
      86 H9           0.3100    -2.0380     2.8650 H9            1 Compound
      87 C3          -1.0040    -2.6140     4.4630 C3            1 Compound
      88 H9          -1.2260    -1.6260     4.8070 H9            1 Compound
      89 H9          -1.8670    -3.2360     4.5850 H9            1 Compound
      90 C3           0.1660    -3.1930     5.2800 C3            1 Compound
      91 H9           0.4000    -4.1730     4.9220 H9            1 Compound
      92 H9           1.0220    -2.5600     5.1740 H9            1 Compound
      93 C3          -0.2350    -3.2700     6.7650 C3            1 Compound
      94 H9          -1.0400    -3.9640     6.8820 H9            1 Compound
      95 H9           0.6040    -3.5970     7.3440 H9            1 Compound
      96 H9          -0.5460    -2.3030     7.1020 H9            1 Compound
      97 C3           1.5880    -1.8020    -2.2080 C3            1 Compound
      98 H9           1.5690    -0.7750    -2.5080 H9            1 Compound
      99 C3           0.4390    -2.5600    -2.8990 C3            1 Compound
     100 H9           0.4320    -3.5770    -2.5660 H9            1 Compound
     101 H9          -0.4930    -2.0970    -2.6510 H9            1 Compound
     102 C3           0.6430    -2.5210    -4.4250 C3            1 Compound
     103 H9           0.7750    -1.5070    -4.7410 H9            1 Compound
     104 H9           1.5100    -3.0910    -4.6840 H9            1 Compound
     105 C3          -0.5920    -3.1200    -5.1230 C3            1 Compound
     106 H9          -0.7380    -4.1260    -4.7890 H9            1 Compound
     107 H9          -1.4560    -2.5360    -4.8820 H9            1 Compound
     108 C3          -0.3750    -3.1110    -6.6470 C3            1 Compound
     109 H9           0.4380    -3.7600    -6.8960 H9            1 Compound
     110 H9          -1.2640    -3.4510    -7.1360 H9            1 Compound
     111 H9          -0.1490    -2.1160    -6.9690 H9            1 Compound
     112 C3          -3.0700    -2.5260     2.4290 C3            1 Compound
     113 H9          -3.5010    -2.1490     3.3330 H9            1 Compound
     114 H9          -3.7280    -2.3270     1.6090 H9            1 Compound
     115 C3          -2.8560    -4.0460     2.5570 C3            1 Compound
     116 H9          -2.9210    -4.3300     3.5870 H9            1 Compound
     117 H9          -3.6080    -4.5610     1.9970 H9            1 Compound
     118 H9          -1.8890    -4.3030     2.1780 H9            1 Compound
     119 C3           2.9340    -2.4300    -2.6140 C3            1 Compound
     120 H9           3.2530    -2.0180    -3.5480 H9            1 Compound
     121 H9           3.6670    -2.2190    -1.8630 H9            1 Compound
     122 C3           2.7680    -3.9540    -2.7550 C3            1 Compound
     123 H9           2.7360    -4.2150    -3.7920 H9            1 Compound
     124 H9           3.5950    -4.4480    -2.2890 H9            1 Compound
     125 H9           1.8580    -4.2590    -2.2820 H9            1 Compound
     126 C3           7.1260     2.5750     0.3300 C3            1 Compound
     127 H9           6.5440     2.8600    -0.5210 H9            1 Compound
     128 H9           6.5200     2.6270     1.2110 H9            1 Compound
     129 C3           8.3250     3.5320     0.4750 C3            1 Compound
     130 H9           8.8980     3.2580     1.3360 H9            1 Compound
     131 H9           8.9400     3.4670    -0.3980 H9            1 Compound
     132 C3           7.8130     4.9750     0.6370 C3            1 Compound
     133 H9           7.2430     5.2500    -0.2260 H9            1 Compound
     134 H9           7.1950     5.0390     1.5080 H9            1 Compound
     135 C3           9.0120     5.9310     0.7860 C3            1 Compound
     136 H9           9.5820     5.6550     1.6480 H9            1 Compound
     137 H9           9.6290     5.8670    -0.0860 H9            1 Compound
     138 C3           8.5000     7.3740     0.9480 C3            1 Compound
     139 H9           7.8810     7.4370     1.8190 H9            1 Compound
     140 H9           7.9310     7.6500     0.0850 H9            1 Compound
     141 C3           9.6980     8.3290     1.1010 C3            1 Compound
     142 H9          10.2670     8.0530     1.9640 H9            1 Compound
     143 H9          10.3170     8.2660     0.2300 H9            1 Compound
     144 C3           9.1870     9.7730     1.2630 C3            1 Compound
     145 H9           8.5670     9.8360     2.1340 H9            1 Compound
     146 H9           8.6180    10.0490     0.4000 H9            1 Compound
     147 C3          10.3850    10.7280     1.4150 C3            1 Compound
     148 H9          10.9540    10.4520     2.2780 H9            1 Compound
     149 H9          11.0040    10.6650     0.5450 H9            1 Compound
     150 C3           9.8730    12.1710     1.5780 C3            1 Compound
     151 H9           9.2550    12.2340     2.4490 H9            1 Compound
     152 H9           9.3040    12.4480     0.7160 H9            1 Compound
     153 C3          11.0720    13.1270     1.7300 C3            1 Compound
     154 H9          10.7160    14.1300     1.8430 H9            1 Compound
     155 H9          11.6410    12.8510     2.5930 H9            1 Compound
     156 H9          11.6900    13.0640     0.8590 H9            1 Compound
     157 C3          -7.0650     2.6170    -0.3230 C3            1 Compound
     158 H9          -6.4810     2.8960     0.5280 H9            1 Compound
     159 H9          -6.4590     2.6670    -1.2040 H9            1 Compound
     160 C3          -8.2580     3.5800    -0.4660 C3            1 Compound
     161 H9          -8.8330     3.3110    -1.3270 H9            1 Compound
     162 H9          -8.8730     3.5170     0.4080 H9            1 Compound
     163 C3          -7.7380     5.0210    -0.6250 C3            1 Compound
     164 H9          -7.1660     5.2910     0.2370 H9            1 Compound
     165 H9          -7.1210     5.0830    -1.4970 H9            1 Compound
     166 C3          -8.9310     5.9840    -0.7720 C3            1 Compound
     167 H9          -9.5490     5.9210     0.0990 H9            1 Compound
     168 H9          -9.5030     5.7140    -1.6360 H9            1 Compound
     169 C3          -8.4110     7.4240    -0.9310 C3            1 Compound
     170 H9          -7.8420     7.6960    -0.0670 H9            1 Compound
     171 H9          -7.7910     7.4860    -1.8010 H9            1 Compound
     172 C3          -9.6040     8.3870    -1.0830 C3            1 Compound
     173 H9         -10.1740     8.1150    -1.9480 H9            1 Compound
     174 H9         -10.2250     8.3260    -0.2140 H9            1 Compound
     175 C3          -9.0840     9.8270    -1.2430 C3            1 Compound
     176 H9          -8.5160    10.0990    -0.3790 H9            1 Compound
     177 H9          -8.4630     9.8880    -2.1120 H9            1 Compound
     178 C3         -10.2770    10.7890    -1.3970 C3            1 Compound
     179 H9         -10.8460    10.5170    -2.2610 H9            1 Compound
     180 H9         -10.8980    10.7290    -0.5280 H9            1 Compound
     181 C3          -9.7570    12.2300    -1.5570 C3            1 Compound
     182 H9          -9.1890    12.5020    -0.6920 H9            1 Compound
     183 H9          -9.1360    12.2900    -2.4260 H9            1 Compound
     184 C3         -10.9500    13.1920    -1.7110 C3            1 Compound
     185 H9         -10.5890    14.1930    -1.8230 H9            1 Compound
     186 H9         -11.5180    12.9200    -2.5760 H9            1 Compound
     187 H9         -11.5710    13.1320    -0.8420 H9            1 Compound
@<TRIPOS>BOND
       1        2        1 1
       2       10        1 1
       3        6        1 1
       4        3        2 1
       5       12        2 1
       6        4        3 1
       7       15        3 1
       8       13        4 1
       9        5        4 1
      10        6        5 1
      11        9        5 1
      12        7        6 1
      13        8        7 1
      14        9        8 1
      15       11       10 1
      16       18       10 1
      17       16       11 1
      18       12       11 1
      19       32       12 1
      20       14       13 1
      21       21       13 1
      22       19       14 1
      23       15       14 1
      24       33       15 1
      25       17       16 1
      26       24       16 1
      27       22       17 1
      28       18       17 1
      29       20       19 1
      30       27       19 1
      31       25       20 1
      32       21       20 1
      33       23       22 1
      34       35       22 1
      35       28       23 1
      36       24       23 1
      37       26       25 1
      38       34       25 1
      39       30       26 1
      40       27       26 1
      41       29       28 1
      42       68       28 1
      43       36       29 1
      44       39       29 1
      45       31       30 1
      46       69       30 1
      47       40       31 1
      48       43       31 1
      49       82       32 1
      50       70       32 1
      51       71       32 1
      52       97       33 1
      53       72       33 1
      54       73       33 1
      55      126       34 1
      56       74       34 1
      57       75       34 1
      58      157       35 1
      59       77       35 1
      60       76       35 1
      61       58       36 1
      62       37       36 1
      63       47       37 1
      64       38       37 1
      65       39       38 1
      66       44       38 1
      67       52       39 1
      68       63       40 1
      69       41       40 1
      70       51       41 1
      71       42       41 1
      72       43       42 1
      73       48       42 1
      74       53       43 1
      75       45       44 1
      76       78       44 1
      77       46       45 1
      78       55       45 1
      79       47       46 1
      80       54       46 1
      81       79       47 1
      82       49       48 1
      83       80       48 1
      84       50       49 1
      85       56       49 1
      86       51       50 1
      87       57       50 1
      88       81       51 1
      89       61       58 1
      90       59       58 1
      91       60       59 1
      92       62       61 1
      93       66       63 1
      94       64       63 1
      95       65       64 1
      96       67       66 1
      97      112       82 1
      98       84       82 1
      99       83       82 1
     100       87       84 1
     101       85       84 1
     102       86       84 1
     103       90       87 1
     104       88       87 1
     105       89       87 1
     106       93       90 1
     107       91       90 1
     108       92       90 1
     109       94       93 1
     110       96       93 1
     111       95       93 1
     112      119       97 1
     113       99       97 1
     114       98       97 1
     115      102       99 1
     116      101       99 1
     117      100       99 1
     118      105      102 1
     119      104      102 1
     120      103      102 1
     121      108      105 1
     122      106      105 1
     123      107      105 1
     124      109      108 1
     125      111      108 1
     126      110      108 1
     127      115      112 1
     128      114      112 1
     129      113      112 1
     130      117      115 1
     131      118      115 1
     132      116      115 1
     133      122      119 1
     134      120      119 1
     135      121      119 1
     136      123      122 1
     137      125      122 1
     138      124      122 1
     139      129      126 1
     140      127      126 1
     141      128      126 1
     142      132      129 1
     143      131      129 1
     144      130      129 1
     145      135      132 1
     146      134      132 1
     147      133      132 1
     148      138      135 1
     149      136      135 1
     150      137      135 1
     151      141      138 1
     152      140      138 1
     153      139      138 1
     154      144      141 1
     155      142      141 1
     156      143      141 1
     157      147      144 1
     158      146      144 1
     159      145      144 1
     160      150      147 1
     161      149      147 1
     162      148      147 1
     163      153      150 1
     164      152      150 1
     165      151      150 1
     166      156      153 1
     167      155      153 1
     168      154      153 1
     169      160      157 1
     170      158      157 1
     171      159      157 1
     172      163      160 1
     173      161      160 1
     174      162      160 1
     175      166      163 1
     176      164      163 1
     177      165      163 1
     178      169      166 1
     179      167      166 1
     180      168      166 1
     181      172      169 1
     182      170      169 1
     183      171      169 1
     184      175      172 1
     185      174      172 1
     186      173      172 1
     187      178      175 1
     188      176      175 1
     189      177      175 1
     190      181      178 1
     191      179      178 1
     192      180      178 1
     193      184      181 1
     194      183      181 1
     195      182      181 1
     196      187      184 1
     197      186      184 1
     198      185      184 1
@<TRIPOS>SUBSTRUCTURE
       1 Compound        1 RESIDUE    0 **** ROOT      0
