@<TRIPOS>MOLECULE
RES
27 27 1 0 1
SMALL
NO_CHARGES
@<TRIPOS>CRYSIN
   15.0307     8.7483     9.2844    90.0000    90.0000    90.0000  1  1
@<TRIPOS>ATOM
       1 C1          -3.4871     0.4567     0.8224 C1            1 RES     
       2 C1          -2.7451    -0.1546    -0.2004 C1            1 RES     
       3 C2          -1.5830    -1.0673     0.0607 C2            1 RES     
       4 C2          -0.2841    -0.2636     0.1806 C2            1 RES     
       5 C2           0.9138    -1.1901     0.4360 C2            1 RES     
       6 C2           2.2164    -0.4162     0.6931 C2            1 RES     
       7 C2           2.7607     0.2621    -0.5726 C2            1 RES     
       8 C2           4.1196     0.9050    -0.3099 C2            1 RES     
       9 C1          -3.1456     0.2197    -1.4789 C1            1 RES     
      10 S1          -4.4305     1.2913    -1.3248 S1            1 RES     
      11 C1          -4.4855     1.2994     0.3549 C1            1 RES     
      12 H1          -3.2991     0.2940     1.8758 H1            1 RES     
      13 H2          -1.7637    -1.6347     0.9999 H2            1 RES     
      14 H2          -1.4954    -1.8022    -0.7694 H2            1 RES     
      15 H2          -0.1256     0.3028    -0.7620 H2            1 RES     
      16 H2          -0.3780     0.4610     1.0195 H2            1 RES     
      17 H2           0.7018    -1.8107     1.3343 H2            1 RES     
      18 H2           1.0494    -1.8804    -0.4255 H2            1 RES     
      19 H2           2.9750    -1.1383     1.0672 H2            1 RES     
      20 H2           2.0530     0.3428     1.4895 H2            1 RES     
      21 H2           2.8706    -0.4882    -1.3855 H2            1 RES     
      22 H2           2.0601     1.0532    -0.9134 H2            1 RES     
      23 H2           4.8586     0.1349    -0.0021 H2            1 RES     
      24 H2           4.0350     1.6726     0.4888 H2            1 RES     
      25 H2           4.4844     1.3956    -1.2369 H2            1 RES     
      26 H3          -2.7035    -0.1129    -2.4086 H3            1 RES     
      27 H3          -5.1721     1.8679     0.9673 H3            1 RES     
@<TRIPOS>BOND
       1        2        1 1
       2       11        1 1
       3       12        1 1
       4        3        2 1
       5        9        2 1
       6        4        3 1
       7       13        3 1
       8       14        3 1
       9        5        4 1
      10       15        4 1
      11       16        4 1
      12        6        5 1
      13       17        5 1
      14       18        5 1
      15        7        6 1
      16       19        6 1
      17       20        6 1
      18        8        7 1
      19       21        7 1
      20       22        7 1
      21       23        8 1
      22       24        8 1
      23       25        8 1
      24       10        9 1
      25       26        9 1
      26       11       10 1
      27       27       11 1
@<TRIPOS>SUBSTRUCTURE
       1 RES             1 RESIDUE    0 **** ROOT      0
