@<TRIPOS>MOLECULE
RES
123 127 1 0 1
SMALL
NO_CHARGES
@<TRIPOS>CRYSIN
   25.9730    20.5130    16.8220    90.0000    90.0000    90.0000  1  1
@<TRIPOS>ATOM
       1 C            5.8590    13.4920     1.6260 C             1 RES     
       2 C            4.7430    14.6160     1.7720 C             1 RES     
       3 C            3.5570    13.9340     2.4680 C             1 RES     
       4 S            1.9920    14.7350     2.0240 S             1 RES     
       5 C            2.7270    15.0290     0.4510 C             1 RES     
       6 C            4.1180    15.0640     0.4550 C             1 RES     
       7 C            3.6580    12.5020     1.9850 C             1 RES     
       8 C            4.8260    12.3840     1.0410 C             1 RES     
       9 C            4.6710    10.9480     0.5490 C             1 RES     
      10 C            3.4440    10.1710     1.1010 C             1 RES     
      11 S            2.2480    11.4790     1.5630 S             1 RES     
      12 H            2.1320    15.0240    -0.4620 H             1 RES     
      13 H            4.6370    15.0700    -0.4790 H             1 RES     
      14 H            4.9450    10.7550    -0.4840 H             1 RES     
      15 C            1.2840     8.7940     0.6740 C             1 RES     
      16 C            2.7080     9.1560     0.1510 C             1 RES     
      17 C            3.4380     7.8270    -0.1770 C             1 RES     
      18 N            2.8520     7.2190    -1.3630 N             1 RES     
      19 S            3.1160     5.4630    -1.2710 S             1 RES     
      20 N            3.7720     5.5330     0.3790 N             1 RES     
      21 C            3.3310     6.7870     0.9440 C             1 RES     
      22 C            1.8850     6.6340     1.4250 C             1 RES     
      23 N            1.3580     7.9280     1.8520 N             1 RES     
      24 H            0.6610     8.3210    -0.1120 H             1 RES     
      25 H            1.8020     5.8890     2.2500 H             1 RES     
      26 C            6.4390    13.0670     3.1010 C             1 RES     
      27 C            5.5940    12.1480     4.1330 C             1 RES     
      28 C            5.7180    12.2980     5.7100 C             1 RES     
      29 C            6.8000    11.7940     6.7350 C             1 RES     
      30 C            6.5470    10.5100     7.6340 C             1 RES     
      31 C            7.3060     9.1670     7.4390 C             1 RES     
      32 C            8.8170     9.3910     7.1970 C             1 RES     
      33 C            8.9610     9.5660     5.7030 C             1 RES     
      34 C           10.2040    10.2050     5.1320 C             1 RES     
      35 C            9.9440    10.6680     3.6800 C             1 RES     
      36 C            9.4500     9.6130     2.6340 C             1 RES     
      37 C            7.9860     9.1060     2.7750 C             1 RES     
      38 C            7.5880     8.0090     1.7700 C             1 RES     
      39 C            6.8580     8.5170     0.5330 C             1 RES     
      40 C            7.6050     9.5290    -0.3380 C             1 RES     
      41 C            8.8470     8.9130    -0.9680 C             1 RES     
      42 H            6.7250    14.0020     3.5960 H             1 RES     
      43 H            7.3930    12.4910     2.9360 H             1 RES     
      44 H            4.5930    12.5570     4.1190 H             1 RES     
      45 H            5.5320    11.0910     3.8220 H             1 RES     
      46 H            5.6740    13.4010     5.8470 H             1 RES     
      47 H            4.7640    11.9060     6.1450 H             1 RES     
      48 H            7.8500    12.0210     6.4630 H             1 RES     
      49 H            6.6230    12.5580     7.5260 H             1 RES     
      50 H            6.9240    10.8070     8.6420 H             1 RES     
      51 H            5.4620    10.3220     7.7860 H             1 RES     
      52 H            7.1790     8.5920     8.3850 H             1 RES     
      53 H            6.8620     8.5300     6.6400 H             1 RES     
      54 H            9.1580    10.2660     7.7940 H             1 RES     
      55 H            9.4290     8.5100     7.4930 H             1 RES     
      56 H            8.9200     8.5330     5.3240 H             1 RES     
      57 H            8.1170    10.1770     5.3280 H             1 RES     
      58 H           10.4430    11.1230     5.7140 H             1 RES     
      59 H           11.0730     9.5030     5.2160 H             1 RES     
      60 H            9.2080    11.4990     3.6910 H             1 RES     
      61 H           10.9020    11.1040     3.3110 H             1 RES     
      62 H           10.1700     8.7620     2.6350 H             1 RES     
      63 H            9.5360    10.1180     1.6550 H             1 RES     
      64 H            7.8380     8.5830     3.7050 H             1 RES     
      65 H            7.2510     9.9320     2.7830 H             1 RES     
      66 H            6.8210     7.3630     2.2650 H             1 RES     
      67 H            8.4480     7.3480     1.5410 H             1 RES     
      68 H            6.5440     7.6510    -0.0890 H             1 RES     
      69 H            5.9380     8.9660     0.9160 H             1 RES     
      70 H            6.9340     9.8530    -1.1590 H             1 RES     
      71 H            7.8610    10.4370     0.2480 H             1 RES     
      72 H            8.5530     8.0370    -1.5810 H             1 RES     
      73 H            9.3380     9.6630    -1.6200 H             1 RES     
      74 H            9.5660     8.5900    -0.1890 H             1 RES     
      75 C            7.1040    14.0530     0.6250 C             1 RES     
      76 C            7.7830    15.5880     0.6810 C             1 RES     
      77 C            9.3220    16.2720     0.7390 C             1 RES     
      78 C           10.4370    16.6340    -0.4260 C             1 RES     
      79 C           11.6660    17.6680    -0.0360 C             1 RES     
      80 C           12.8960    17.9720    -1.0790 C             1 RES     
      81 C           14.0540    19.0120    -0.6340 C             1 RES     
      82 C           15.4580    18.9400    -1.4250 C             1 RES     
      83 C           16.5900    19.9360    -0.9310 C             1 RES     
      84 C           18.0750    19.8440    -1.4870 C             1 RES     
      85 C           18.8360    18.5140    -1.2050 C             1 RES     
      86 C           18.4870    17.4440    -2.2570 C             1 RES     
      87 C           18.4280    15.9940    -1.7390 C             1 RES     
      88 C           19.7130    15.1450    -1.7310 C             1 RES     
      89 C           20.8270    15.5070    -0.7430 C             1 RES     
      90 C           20.3830    15.4410     0.7160 C             1 RES     
      91 H            7.9120    13.2910     0.5460 H             1 RES     
      92 H            6.6700    14.0340    -0.4000 H             1 RES     
      93 H            7.2720    16.1680    -0.1210 H             1 RES     
      94 H            7.3160    15.9870     1.6050 H             1 RES     
      95 H            9.0820    17.3090     1.0790 H             1 RES     
      96 H            9.8660    15.8020     1.5840 H             1 RES     
      97 H           10.8810    15.6820    -0.7850 H             1 RES     
      98 H            9.9070    17.1060    -1.2780 H             1 RES     
      99 H           11.2160    18.6520     0.2190 H             1 RES     
     100 H           12.1570    17.2810     0.8750 H             1 RES     
     101 H           12.4960    18.3290    -2.0490 H             1 RES     
     102 H           13.3930    16.9960    -1.2540 H             1 RES     
     103 H           13.6680    20.0520    -0.7060 H             1 RES     
     104 H           14.3170    18.8230     0.4210 H             1 RES     
     105 H           15.8280    17.9100    -1.2510 H             1 RES     
     106 H           15.3110    19.1000    -2.5150 H             1 RES     
     107 H           16.2520    20.9760    -1.1370 H             1 RES     
     108 H           16.6810    19.8340     0.1700 H             1 RES     
     109 H           18.1650    20.1070    -2.5670 H             1 RES     
     110 H           18.6500    20.6380    -0.9450 H             1 RES     
     111 H           18.5680    18.2090    -0.1720 H             1 RES     
     112 H           19.9410    18.6500    -1.2330 H             1 RES     
     113 H           17.4620    17.6520    -2.5910 H             1 RES     
     114 H           19.1030    17.5550    -3.1800 H             1 RES     
     115 H           17.7750    15.4630    -2.4650 H             1 RES     
     116 H           17.9010    15.9620    -0.7620 H             1 RES     
     117 H           19.3970    14.1020    -1.4970 H             1 RES     
     118 H           20.1380    15.1360    -2.7570 H             1 RES     
     119 H           21.6340    14.7510    -0.8800 H             1 RES     
     120 H           21.2490    16.5060    -0.9730 H             1 RES     
     121 H           19.9510    14.4440     0.9500 H             1 RES     
     122 H           21.2640    15.6030     1.3740 H             1 RES     
     123 H           19.6330    16.2280     0.9300 H             1 RES     
@<TRIPOS>BOND
       1        2        1 1
       2        8        1 1
       3       26        1 1
       4       75        1 1
       5        3        2 1
       6        6        2 1
       7        4        3 1
       8        7        3 1
       9        5        4 1
      10        6        5 1
      11       12        5 1
      12       13        6 1
      13        8        7 1
      14       11        7 1
      15        9        8 1
      16       10        9 1
      17       14        9 1
      18       11       10 1
      19       16       10 1
      20       16       15 1
      21       23       15 1
      22       24       15 1
      23       17       16 1
      24       18       17 1
      25       21       17 1
      26       19       18 1
      27       20       19 1
      28       21       20 1
      29       22       21 1
      30       23       22 1
      31       25       22 1
      32       27       26 1
      33       42       26 1
      34       43       26 1
      35       28       27 1
      36       44       27 1
      37       45       27 1
      38       29       28 1
      39       46       28 1
      40       47       28 1
      41       30       29 1
      42       48       29 1
      43       49       29 1
      44       31       30 1
      45       50       30 1
      46       51       30 1
      47       32       31 1
      48       52       31 1
      49       53       31 1
      50       33       32 1
      51       54       32 1
      52       55       32 1
      53       34       33 1
      54       56       33 1
      55       57       33 1
      56       35       34 1
      57       58       34 1
      58       59       34 1
      59       36       35 1
      60       60       35 1
      61       61       35 1
      62       37       36 1
      63       62       36 1
      64       63       36 1
      65       38       37 1
      66       64       37 1
      67       65       37 1
      68       39       38 1
      69       66       38 1
      70       67       38 1
      71       40       39 1
      72       68       39 1
      73       69       39 1
      74       41       40 1
      75       70       40 1
      76       71       40 1
      77       72       41 1
      78       73       41 1
      79       74       41 1
      80       76       75 1
      81       91       75 1
      82       92       75 1
      83       77       76 1
      84       93       76 1
      85       94       76 1
      86       78       77 1
      87       95       77 1
      88       96       77 1
      89       79       78 1
      90       97       78 1
      91       98       78 1
      92       80       79 1
      93       99       79 1
      94      100       79 1
      95       81       80 1
      96      101       80 1
      97      102       80 1
      98       82       81 1
      99      103       81 1
     100      104       81 1
     101       83       82 1
     102      105       82 1
     103      106       82 1
     104       84       83 1
     105      107       83 1
     106      108       83 1
     107       85       84 1
     108      109       84 1
     109      110       84 1
     110       86       85 1
     111      111       85 1
     112      112       85 1
     113       87       86 1
     114      113       86 1
     115      114       86 1
     116       88       87 1
     117      115       87 1
     118      116       87 1
     119       89       88 1
     120      117       88 1
     121      118       88 1
     122       90       89 1
     123      119       89 1
     124      120       89 1
     125      121       90 1
     126      122       90 1
     127      123       90 1
@<TRIPOS>SUBSTRUCTURE
       1 RES             1 RESIDUE    0 **** ROOT      0
