@<TRIPOS>MOLECULE
RES
45 45 1 0 1
SMALL
NO_CHARGES
@<TRIPOS>CRYSIN
  200.0000   200.0000   200.0000    90.0000    90.0000    90.0000  1  1
@<TRIPOS>ATOM
       1 _C1        120.2838    94.0220   114.4732 _C1           1 RES     
       2 _C1        119.5166    94.2942   113.3339 _C1           1 RES     
       3 _C1        120.2757    94.5809   112.2079 _C1           1 RES     
       4 _S1        121.8979    94.4935   112.6385 _S1           1 RES     
       5 _C1        121.6521    94.0924   114.2519 _C1           1 RES     
       6 _H1        119.8514    93.7796   115.4349 _H1           1 RES     
       7 _H1        118.4349    94.2822   113.3312 _H1           1 RES     
       8 _H2        119.8884    94.8186   111.2266 _H2           1 RES     
       9 _H2        122.4230    93.9192   114.9905 _H2           1 RES     
      10 _C1         78.5345    82.0397   110.5905 _C1           1 RES     
      11 _C1         77.8772    83.2653   110.7543 _C1           1 RES     
      12 _C1         77.3820    83.4638   112.0355 _C1           1 RES     
      13 _S1         77.7659    82.1115   112.9565 _S1           1 RES     
      14 _C1         78.5611    81.2651   111.7417 _C1           1 RES     
      15 _H1         78.9794    81.7261   109.6556 _H1           1 RES     
      16 _H1         77.7660    83.9891   109.9579 _H1           1 RES     
      17 _H2         76.8438    84.3369   112.3783 _H2           1 RES     
      18 _H2         79.0149    80.2880   111.8374 _H2           1 RES     
      19 _C1        152.2306    53.4726    79.5161 _C1           1 RES     
      20 _C1        153.1035    54.1228    80.3971 _C1           1 RES     
      21 _C1        154.1511    53.3235    80.8327 _C1           1 RES     
      22 _S1        153.9838    51.8118    80.1176 _S1           1 RES     
      23 _C1        152.5853    52.1571    79.2520 _C1           1 RES     
      24 _H1        151.3622    53.9500    79.0822 _H1           1 RES     
      25 _H1        152.9738    55.1506    80.7088 _H1           1 RES     
      26 _H2        154.9363    53.6236    81.5131 _H2           1 RES     
      27 _H2        152.0528    51.4756    78.6025 _H2           1 RES     
      28 _C1        151.6517    69.6364    91.1031 _C1           1 RES     
      29 _C1        150.5162    69.3083    91.8540 _C1           1 RES     
      30 _C1        149.3265    69.7270    91.2747 _C1           1 RES     
      31 _S1        149.6963    70.5034    89.8308 _S1           1 RES     
      32 _C1        151.3636    70.3156    89.9276 _C1           1 RES     
      33 _H1        152.6581    69.3846    91.4098 _H1           1 RES     
      34 _H1        150.5616    68.7786    92.7961 _H1           1 RES     
      35 _H2        148.3363    69.5783    91.6833 _H2           1 RES     
      36 _H2        152.0875    70.6624    89.2026 _H2           1 RES     
      37 _C1        153.5790   131.7209   133.8361 _C1           1 RES     
      38 _C1        154.1534   131.1790   134.9925 _C1           1 RES     
      39 _C1        154.1943   132.0645   136.0604 _C1           1 RES     
      40 _S1        153.5148   133.5170   135.5576 _S1           1 RES     
      41 _C1        153.1638   133.0367   133.9858 _C1           1 RES     
      42 _H1        153.4691   131.1668   132.9135 _H1           1 RES     
      43 _H1        154.5295   130.1662   135.0486 _H1           1 RES     
      44 _H2        154.5941   131.8540   137.0429 _H2           1 RES     
      45 _H2        152.6965   133.6442   133.2227 _H2           1 RES     
@<TRIPOS>BOND
       1        2        1 1
       2        5        1 1
       3        6        1 1
       4        3        2 1
       5        7        2 1
       6        4        3 1
       7        8        3 1
       8        5        4 1
       9        9        5 1
      10       11       10 1
      11       14       10 1
      12       15       10 1
      13       12       11 1
      14       16       11 1
      15       13       12 1
      16       17       12 1
      17       14       13 1
      18       18       14 1
      19       20       19 1
      20       23       19 1
      21       24       19 1
      22       21       20 1
      23       25       20 1
      24       22       21 1
      25       26       21 1
      26       23       22 1
      27       27       23 1
      28       29       28 1
      29       32       28 1
      30       33       28 1
      31       30       29 1
      32       34       29 1
      33       31       30 1
      34       35       30 1
      35       32       31 1
      36       36       32 1
      37       38       37 1
      38       41       37 1
      39       42       37 1
      40       39       38 1
      41       43       38 1
      42       40       39 1
      43       44       39 1
      44       41       40 1
      45       45       41 1
@<TRIPOS>SUBSTRUCTURE
       1 RES             1 RESIDUE    0 **** ROOT      0
