@<TRIPOS>MOLECULE
RES
9 9 1 0 1
SMALL
NO_CHARGES
@<TRIPOS>CRYSIN
    9.6125     8.2934     5.3538    90.0000    90.0000    90.0000  1  1
@<TRIPOS>ATOM
       1 C1           0.6984    -0.6804    -0.0481 C1            1 RES     
       2 C1          -0.6978    -0.6802     0.0590 C1            1 RES     
       3 C1          -1.2527     0.5915     0.0914 C1            1 RES     
       4 S1          -0.0008     1.7078    -0.0136 S1            1 RES     
       5 C1           1.2521     0.5911    -0.1008 C1            1 RES     
       6 H1           1.2897    -1.5856    -0.0862 H1            1 RES     
       7 H1          -1.2882    -1.5852     0.1114 H1            1 RES     
       8 H2          -2.3066     0.8209     0.1704 H2            1 RES     
       9 H2           2.3059     0.8202    -0.1834 H2            1 RES     
@<TRIPOS>BOND
       1        2        1 1
       2        5        1 1
       3        6        1 1
       4        3        2 1
       5        7        2 1
       6        4        3 1
       7        8        3 1
       8        5        4 1
       9        9        5 1
@<TRIPOS>SUBSTRUCTURE
       1 RES             1 RESIDUE    0 **** ROOT      0
