@<TRIPOS>MOLECULE
RES
16 17 1 0 1
SMALL
NO_CHARGES
@<TRIPOS>CRYSIN
   13.1910     9.7520     6.0340    90.0000    90.0000    90.0000  1  1
@<TRIPOS>ATOM
       1 C1          -4.6360     1.9930     0.0290 C1            1 RES     
       2 C1          -3.2890     2.0830    -0.2290 C1            1 RES     
       3 C1          -2.5950     0.7820    -0.4930 C1            1 RES     
       4 S1          -3.8850    -0.5220    -0.4010 S1            1 RES     
       5 C1          -5.1140     0.7100    -0.0040 C1            1 RES     
       6 H1          -5.2600     2.8530     0.2350 H1            1 RES     
       7 H1          -2.7750     3.0350    -0.2410 H1            1 RES     
       8 H2          -6.1540     0.4670     0.1640 H2            1 RES     
       9 C1           0.5300    -0.6880    -0.0390 C1            1 RES     
      10 C1          -0.8030    -0.7690     0.2830 C1            1 RES     
      11 C1          -1.4850     0.5410     0.5410 C1            1 RES     
      12 S1          -0.1860     1.8330     0.4110 S1            1 RES     
      13 C1           1.0110     0.5940    -0.0540 C1            1 RES     
      14 H1           1.1390    -1.5530    -0.2710 H1            1 RES     
      15 H1          -1.3210    -1.7170     0.3270 H1            1 RES     
      16 H2           2.0370     0.8330    -0.2990 H2            1 RES     
@<TRIPOS>BOND
       1        2        1 1
       2        5        1 1
       3        6        1 1
       4        3        2 1
       5        7        2 1
       6        4        3 1
       7       11        3 1
       8        5        4 1
       9        8        5 1
      10       10        9 1
      11       13        9 1
      12       14        9 1
      13       11       10 1
      14       15       10 1
      15       12       11 1
      16       13       12 1
      17       16       13 1
@<TRIPOS>SUBSTRUCTURE
       1 RES             1 RESIDUE    0 **** ROOT      0
