@<TRIPOS>MOLECULE
RES
187 198 1 0 1
SMALL
NO_CHARGES
@<TRIPOS>CRYSIN
   31.5650    30.6786    23.0142    90.0000    90.0000    90.0000  1  1
@<TRIPOS>ATOM
       1 C           -1.3900     1.6860    -0.1240 C             1 RES     
       2 C           -0.6940     0.4690    -0.0040 C             1 RES     
       3 C            0.7430     0.4650     0.0060 C             1 RES     
       4 C            1.4460     1.6780     0.1290 C             1 RES     
       5 C            0.7450     2.9270     0.0990 C             1 RES     
       6 C           -0.6830     2.9320    -0.0910 C             1 RES     
       7 N           -1.2070     4.1430    -0.1590 N             1 RES     
       8 S            0.0380     5.2000     0.0060 S             1 RES     
       9 N            1.2770     4.1350     0.1690 N             1 RES     
      10 C           -2.7630     1.3620    -0.1380 C             1 RES     
      11 C           -2.8620    -0.0140     0.0080 C             1 RES     
      12 N           -1.6030    -0.5690     0.1000 N             1 RES     
      13 C            2.8170     1.3450     0.1420 C             1 RES     
      14 C            2.9080    -0.0310    -0.0080 C             1 RES     
      15 N            1.6460    -0.5780    -0.1010 N             1 RES     
      16 C           -4.2010    -0.4690     0.0680 C             1 RES     
      17 C           -5.0930     0.5970    -0.0520 C             1 RES     
      18 S           -4.3040     2.1600    -0.2290 S             1 RES     
      19 C            4.2440    -0.4930    -0.0680 C             1 RES     
      20 C            5.1430     0.5680     0.0540 C             1 RES     
      21 S            4.3620     2.1340     0.2350 S             1 RES     
      22 C           -6.4420     0.2130    -0.0210 C             1 RES     
      23 C           -6.5710    -1.1770     0.1360 C             1 RES     
      24 S           -4.9990    -1.9820     0.2310 S             1 RES     
      25 C            6.4890     0.1760     0.0220 C             1 RES     
      26 C            6.6100    -1.2150    -0.1380 C             1 RES     
      27 S            5.0340    -2.0100    -0.2350 S             1 RES     
      28 C           -7.8570    -1.7740     0.1890 C             1 RES     
      29 C           -8.3210    -3.0550     0.3370 C             1 RES     
      30 C            7.8930    -1.8190    -0.1930 C             1 RES     
      31 C            8.3500    -3.1010    -0.3430 C             1 RES     
      32 C           -1.3830    -1.8870     0.6770 C             1 RES     
      33 C            1.4180    -1.8930    -0.6800 C             1 RES     
      34 C            7.6380     1.1350     0.1430 C             1 RES     
      35 C           -7.5860     1.1790    -0.1400 C             1 RES     
      36 C           -9.7310    -3.4670     0.3560 C             1 RES     
      37 C           -9.7520    -4.9390     0.5700 C             1 RES     
      38 C           -8.4370    -5.4000     0.6670 C             1 RES     
      39 C           -7.4970    -4.2670     0.5230 C             1 RES     
      40 C            9.7570    -3.5210    -0.3640 C             1 RES     
      41 C            9.7700    -4.9930    -0.5810 C             1 RES     
      42 C            8.4520    -5.4470    -0.6790 C             1 RES     
      43 C            7.5180    -4.3080    -0.5320 C             1 RES     
      44 C           -8.1160    -6.7320     0.8680 C             1 RES     
      45 C           -9.1650    -7.6260     0.9730 C             1 RES     
      46 C          -10.4890    -7.1820     0.8780 C             1 RES     
      47 C          -10.8060    -5.8490     0.6770 C             1 RES     
      48 C            8.1230    -6.7770    -0.8830 C             1 RES     
      49 C            9.1670    -7.6760    -0.9910 C             1 RES     
      50 C           10.4930    -7.2400    -0.8950 C             1 RES     
      51 C           10.8180    -5.9090    -0.6900 C             1 RES     
      52 O           -6.2820    -4.3500     0.5570 O             1 RES     
      53 O            6.3030    -4.3840    -0.5670 O             1 RES     
      54 F          -11.4610    -8.0830     0.9850 F             1 RES     
      55 F           -8.9410    -8.9220     1.1670 F             1 RES     
      56 F            8.9360    -8.9700    -1.1880 F             1 RES     
      57 F           11.4610    -8.1460    -1.0050 F             1 RES     
      58 C          -10.8500    -2.6890     0.2030 C             1 RES     
      59 C          -12.1800    -3.2160     0.2390 C             1 RES     
      60 N          -13.2700    -3.6130     0.2630 N             1 RES     
      61 C          -10.8190    -1.2750    -0.0110 C             1 RES     
      62 N          -10.8230    -0.1270    -0.1840 N             1 RES     
      63 C           10.8810    -2.7510    -0.2090 C             1 RES     
      64 C           10.8580    -1.3370     0.0080 C             1 RES     
      65 N           10.8680    -0.1900     0.1850 N             1 RES     
      66 C           12.2070    -3.2850    -0.2460 C             1 RES     
      67 N           13.2950    -3.6890    -0.2710 N             1 RES     
      68 H           -8.6260    -1.0180     0.0870 H             1 RES     
      69 H            8.6660    -1.0670    -0.0890 H             1 RES     
      70 H           -0.3320    -2.1580     0.5780 H             1 RES     
      71 H           -2.0070    -2.6500     0.2040 H             1 RES     
      72 H            0.3950    -2.2100    -0.4780 H             1 RES     
      73 H            2.1180    -2.6380    -0.2930 H             1 RES     
      74 H            8.2740     1.1190    -0.7470 H             1 RES     
      75 H            8.2770     0.8940     0.9980 H             1 RES     
      76 H           -8.2210     1.1640     0.7500 H             1 RES     
      77 H           -8.2250     0.9440    -0.9950 H             1 RES     
      78 H           -7.0860    -7.0620     0.9400 H             1 RES     
      79 H          -11.8500    -5.5780     0.6110 H             1 RES     
      80 H            7.0910    -7.1000    -0.9560 H             1 RES     
      81 H           11.8640    -5.6440    -0.6240 H             1 RES     
      82 C            7.1260     2.5750     0.3300 C             1 RES     
      83 H            6.5440     2.8600    -0.5210 H             1 RES     
      84 H            6.5200     2.6270     1.2110 H             1 RES     
      85 C            8.3250     3.5320     0.4750 C             1 RES     
      86 H            8.8980     3.2580     1.3360 H             1 RES     
      87 H            8.9400     3.4670    -0.3980 H             1 RES     
      88 C            7.8130     4.9750     0.6370 C             1 RES     
      89 H            7.2430     5.2500    -0.2260 H             1 RES     
      90 H            7.1950     5.0390     1.5080 H             1 RES     
      91 C            9.0120     5.9310     0.7860 C             1 RES     
      92 H            9.5820     5.6550     1.6480 H             1 RES     
      93 H            9.6290     5.8670    -0.0860 H             1 RES     
      94 C            8.5000     7.3740     0.9480 C             1 RES     
      95 H            7.8810     7.4370     1.8190 H             1 RES     
      96 H            7.9310     7.6500     0.0850 H             1 RES     
      97 C            9.6980     8.3290     1.1010 C             1 RES     
      98 H           10.2670     8.0530     1.9640 H             1 RES     
      99 H           10.3170     8.2660     0.2300 H             1 RES     
     100 C            9.1870     9.7730     1.2630 C             1 RES     
     101 H            8.5670     9.8360     2.1340 H             1 RES     
     102 H            8.6180    10.0490     0.4000 H             1 RES     
     103 C           10.3850    10.7280     1.4150 C             1 RES     
     104 H           10.9540    10.4520     2.2780 H             1 RES     
     105 H           11.0040    10.6650     0.5450 H             1 RES     
     106 C            9.8730    12.1710     1.5780 C             1 RES     
     107 H            9.2550    12.2340     2.4490 H             1 RES     
     108 H            9.3040    12.4480     0.7160 H             1 RES     
     109 C           11.0720    13.1270     1.7300 C             1 RES     
     110 H           10.7160    14.1300     1.8430 H             1 RES     
     111 H           11.6410    12.8510     2.5930 H             1 RES     
     112 H           11.6900    13.0640     0.8590 H             1 RES     
     113 C           -7.0650     2.6170    -0.3230 C             1 RES     
     114 H           -6.4810     2.8960     0.5280 H             1 RES     
     115 H           -6.4590     2.6670    -1.2040 H             1 RES     
     116 C           -8.2580     3.5800    -0.4660 C             1 RES     
     117 H           -8.8330     3.3110    -1.3270 H             1 RES     
     118 H           -8.8730     3.5170     0.4080 H             1 RES     
     119 C           -7.7380     5.0210    -0.6250 C             1 RES     
     120 H           -7.1660     5.2910     0.2370 H             1 RES     
     121 H           -7.1210     5.0830    -1.4970 H             1 RES     
     122 C           -8.9310     5.9840    -0.7720 C             1 RES     
     123 H           -9.5490     5.9210     0.0990 H             1 RES     
     124 H           -9.5030     5.7140    -1.6360 H             1 RES     
     125 C           -8.4110     7.4240    -0.9310 C             1 RES     
     126 H           -7.8420     7.6960    -0.0670 H             1 RES     
     127 H           -7.7910     7.4860    -1.8010 H             1 RES     
     128 C           -9.6040     8.3870    -1.0830 C             1 RES     
     129 H          -10.1740     8.1150    -1.9480 H             1 RES     
     130 H          -10.2250     8.3260    -0.2140 H             1 RES     
     131 C           -9.0840     9.8270    -1.2430 C             1 RES     
     132 H           -8.5160    10.0990    -0.3790 H             1 RES     
     133 H           -8.4630     9.8880    -2.1120 H             1 RES     
     134 C          -10.2770    10.7890    -1.3970 C             1 RES     
     135 H          -10.8460    10.5170    -2.2610 H             1 RES     
     136 H          -10.8980    10.7290    -0.5280 H             1 RES     
     137 C           -9.7570    12.2300    -1.5570 C             1 RES     
     138 H           -9.1890    12.5020    -0.6920 H             1 RES     
     139 H           -9.1360    12.2900    -2.4260 H             1 RES     
     140 C          -10.9500    13.1920    -1.7110 C             1 RES     
     141 H          -10.5890    14.1930    -1.8230 H             1 RES     
     142 H          -11.5180    12.9200    -2.5760 H             1 RES     
     143 H          -11.5710    13.1320    -0.8420 H             1 RES     
     144 C            1.4289    -2.9819    -1.7689 C             1 RES     
     145 O            0.6997    -3.8309    -2.6445 O             1 RES     
     146 C            1.5211    -4.2939    -3.7150 C             1 RES     
     147 C            0.7002    -5.1973    -4.6248 C             1 RES     
     148 O            1.5248    -5.6584    -5.6941 O             1 RES     
     149 C            0.7928    -6.5108    -6.5734 C             1 RES     
     150 C            1.7101    -6.9772    -7.6954 C             1 RES     
     151 O            0.9815    -7.8299    -8.5768 O             1 RES     
     152 C            1.8028    -8.2891    -9.6416 C             1 RES     
     153 H            1.7907    -2.1003    -2.3063 H             1 RES     
     154 H            2.2685    -3.5240    -1.3238 H             1 RES     
     155 H            2.3799    -4.8485    -3.3184 H             1 RES     
     156 H            1.9081    -3.4431    -4.2882 H             1 RES     
     157 H           -0.1578    -4.6434    -5.0236 H             1 RES     
     158 H            0.3141    -6.0495    -4.0533 H             1 RES     
     159 H           -0.0643    -5.9712    -6.9933 H             1 RES     
     160 H            0.4077    -7.3774    -6.0230 H             1 RES     
     161 H            2.5677    -7.5150    -7.2740 H             1 RES     
     162 H            2.0959    -6.1096    -8.2438 H             1 RES     
     163 H            1.2016    -8.9356   -10.2863 H             1 RES     
     164 H            2.6451    -8.8678    -9.2511 H             1 RES     
     165 H            2.1672    -7.4441   -10.2335 H             1 RES     
     166 C           -1.3721    -2.9759     1.7659 C             1 RES     
     167 O           -2.1015    -3.8336     2.6327 O             1 RES     
     168 C           -1.2953    -4.9237     3.0764 C             1 RES     
     169 C           -2.1158    -5.8135     3.9998 C             1 RES     
     170 O           -1.3064    -6.9024     4.4414 O             1 RES     
     171 C           -2.0386    -7.7639     5.3117 C             1 RES     
     172 C           -1.1376    -8.9076     5.7564 C             1 RES     
     173 O           -1.8665    -9.7712     6.6269 O             1 RES     
     174 C           -1.0603   -10.8556     7.0667 C             1 RES     
     175 H           -1.0448    -3.5218     0.8761 H             1 RES     
     176 H           -0.5091    -2.5513     2.2873 H             1 RES     
     177 H           -0.4140    -4.5480     3.6099 H             1 RES     
     178 H           -0.9429    -5.5060     2.2167 H             1 RES     
     179 H           -2.9963    -6.1914     3.4669 H             1 RES     
     180 H           -2.4673    -5.2329     4.8607 H             1 RES     
     181 H           -2.9184    -8.1629     4.7932 H             1 RES     
     182 H           -2.3893    -7.2044     6.1870 H             1 RES     
     183 H           -0.2574    -8.5071     6.2732 H             1 RES     
     184 H           -0.7862    -9.4652     4.8800 H             1 RES     
     185 H           -1.6611   -11.4856     7.7279 H             1 RES     
     186 H           -0.1951   -10.4856     7.6247 H             1 RES     
     187 H           -0.7308   -11.4561     6.2135 H             1 RES     
@<TRIPOS>BOND
       1        2        1 1
       2       10        1 1
       3        6        1 1
       4        3        2 1
       5       12        2 1
       6       11       10 1
       7       18       10 1
       8        5        6 1
       9        7        6 1
      10        4        3 1
      11       15        3 1
      12       11       12 1
      13       32       12 1
      14       16       11 1
      15       17       18 1
      16        4        5 1
      17        9        5 1
      18        8        7 1
      19       13        4 1
      20       14       15 1
      21       33       15 1
      22       70       32 1
      23       71       32 1
      24      166       32 1
      25       17       16 1
      26       24       16 1
      27       22       17 1
      28        8        9 1
      29       14       13 1
      30       21       13 1
      31       19       14 1
      32       72       33 1
      33       73       33 1
      34      144       33 1
      35       20       21 1
      36       20       19 1
      37       27       19 1
      38       25       20 1
      39       23       24 1
      40       23       22 1
      41       35       22 1
      42       28       23 1
      43       26       27 1
      44       26       25 1
      45       34       25 1
      46       30       26 1
      47      113       35 1
      48       77       35 1
      49       76       35 1
      50       29       28 1
      51       68       28 1
      52      116      113 1
      53      114      113 1
      54      115      113 1
      55       82       34 1
      56       74       34 1
      57       75       34 1
      58       31       30 1
      59       69       30 1
      60       85       82 1
      61       83       82 1
      62       84       82 1
      63       36       29 1
      64       39       29 1
      65      119      116 1
      66      117      116 1
      67      118      116 1
      68       58       36 1
      69       37       36 1
      70       38       39 1
      71       52       39 1
      72       40       31 1
      73       43       31 1
      74       88       85 1
      75       87       85 1
      76       86       85 1
      77       63       40 1
      78       41       40 1
      79       42       43 1
      80       53       43 1
      81       61       58 1
      82       59       58 1
      83       47       37 1
      84       38       37 1
      85       44       38 1
      86       62       61 1
      87       60       59 1
      88       46       47 1
      89       79       47 1
      90       45       44 1
      91       78       44 1
      92       66       63 1
      93       64       63 1
      94       51       41 1
      95       42       41 1
      96       48       42 1
      97       67       66 1
      98       65       64 1
      99       50       51 1
     100       81       51 1
     101       49       48 1
     102       80       48 1
     103       91       88 1
     104       90       88 1
     105       89       88 1
     106      122      119 1
     107      120      119 1
     108      121      119 1
     109       45       46 1
     110       54       46 1
     111       55       45 1
     112       49       50 1
     113       57       50 1
     114       56       49 1
     115       94       91 1
     116       92       91 1
     117       93       91 1
     118       97       94 1
     119       96       94 1
     120       95       94 1
     121      100       97 1
     122       98       97 1
     123       99       97 1
     124      103      100 1
     125      102      100 1
     126      101      100 1
     127      106      103 1
     128      105      103 1
     129      104      103 1
     130      109      106 1
     131      108      106 1
     132      107      106 1
     133      112      109 1
     134      111      109 1
     135      110      109 1
     136      125      122 1
     137      123      122 1
     138      124      122 1
     139      128      125 1
     140      126      125 1
     141      127      125 1
     142      131      128 1
     143      130      128 1
     144      129      128 1
     145      134      131 1
     146      132      131 1
     147      133      131 1
     148      137      134 1
     149      135      134 1
     150      136      134 1
     151      140      137 1
     152      139      137 1
     153      138      137 1
     154      143      140 1
     155      142      140 1
     156      141      140 1
     157      145      144 1
     158      153      144 1
     159      154      144 1
     160      146      145 1
     161      147      146 1
     162      155      146 1
     163      156      146 1
     164      148      147 1
     165      157      147 1
     166      158      147 1
     167      149      148 1
     168      150      149 1
     169      159      149 1
     170      160      149 1
     171      151      150 1
     172      161      150 1
     173      162      150 1
     174      152      151 1
     175      163      152 1
     176      164      152 1
     177      165      152 1
     178      167      166 1
     179      175      166 1
     180      176      166 1
     181      168      167 1
     182      169      168 1
     183      177      168 1
     184      178      168 1
     185      170      169 1
     186      179      169 1
     187      180      169 1
     188      171      170 1
     189      172      171 1
     190      181      171 1
     191      182      171 1
     192      173      172 1
     193      183      172 1
     194      184      172 1
     195      174      173 1
     196      185      174 1
     197      186      174 1
     198      187      174 1
@<TRIPOS>SUBSTRUCTURE
       1 RES             1 RESIDUE    0 **** ROOT      0
